1
    SWAT May 26   VER 2020/Rev 681                                                                       0/ 0/   0      0: 0: 0

    General Input/Output section (file.cio):                                        
    4/8/2024 12:00:00 AM ARCGIS-SWAT interface AV                                   
                                                                                    


       SUB      GIS  MON   AREAkm2  PRECIPmm SNOMELTmm     PETmm      ETmm      SWmm    PERCmm    SURQmm    GW_Qmm    WYLDmm  SYLDt/ha ORGNkg/ha ORGPkg/haNSURQkg/ha SOLPkg/ha SEDPkg/ha LAT Q(mm)LATNO3kg/hGWNO3kg/haCHOLAmic/LCBODU mg/L DOXQ mg/L TNO3kg/ha   QTILEmm TVAPkg/ha
BIGSUB    1        0 1988.10173E+03   459.053     0.000  2213.495   248.417   287.044    66.410   104.405     0.000   109.664    10.531     0.356     0.054     0.089     0.058     6.766     2.398     0.037     0.000 .00000E+00 0.000E+00 0.000E+00 0.000E+00 0.000E+00 0.000E+00
BIGSUB    2        0 1988.15911E+03   458.112     0.000  2209.474   241.452   299.085    55.586   118.575     0.000   122.292    11.679     0.373     0.051     0.088     0.063     7.503     1.288     0.031     0.000 .00000E+00 0.000E+00 0.000E+00 0.000E+00 0.000E+00 0.000E+00
BIGSUB    3        0 1988.89835E+02   458.566     0.000  2211.573   241.447   317.805    82.669   108.051     0.000   113.651    16.060     0.187     0.022     0.000     0.056     8.658     2.017     0.058     0.000 .00000E+00 0.000E+00 0.000E+00 0.000E+00 0.000E+00 0.000E+00
BIGSUB    4        0 1988.15209E+02   459.451     0.000  2218.719   240.296   321.651    89.990   110.438     0.000   114.658     4.349     0.094     0.011     0.000     0.061     4.171     0.339     0.009     0.000 .00000E+00 0.000E+00 0.000E+00 0.000E+00 0.000E+00 0.000E+00
BIGSUB    5        0 1988.65675E+02   459.451     0.000  2218.269   238.397   262.544    16.647   143.611     0.000   145.788    15.371     0.146     0.018     0.000     0.064     7.236     1.457     0.016     0.000 .00000E+00 0.000E+00 0.000E+00 0.000E+00 0.000E+00 0.000E+00
BIGSUB    6        0 1988.16063E+03   459.374     0.000  2216.962   251.794   301.595    52.091   103.106     0.000   107.016     9.914     0.138     0.017     0.000     0.054     5.883     1.658     0.027     0.000 .00000E+00 0.000E+00 0.000E+00 0.000E+00 0.000E+00 0.000E+00
BIGSUB    7        0 1988.36382E+01   459.451     0.000  2220.515   238.809   318.142    90.688   111.344     0.000   116.308     5.903     0.104     0.012     0.000     0.063     4.412     1.083     0.030     0.000 .00000E+00 0.000E+00 0.000E+00 0.000E+00 0.000E+00 0.000E+00
BIGSUB    8        0 1988.83411E+02   459.451     0.000  2172.376   238.595   268.261    17.697   142.123     0.000   143.967    13.254     0.139     0.017     0.000     0.065     6.900     1.081     0.013     0.000 .00000E+00 0.000E+00 0.000E+00 0.000E+00 0.000E+00 0.000E+00
BIGSUB    9        0 1988.13927E+01   459.451     0.000  2220.890   247.549   299.939    68.313   106.223     0.000   111.636     3.011     0.055     0.007     0.000     0.063     2.227     2.487     0.022     0.000 .00000E+00 0.000E+00 0.000E+00 0.000E+00 0.000E+00 0.000E+00
BIGSUB   10        0 1988.81416E+02   458.226     0.000  2164.643   236.840   250.661     0.000   151.089     0.000   153.564    23.179     0.179     0.022     0.000     0.059     9.183     2.475     0.021     0.000 .00000E+00 0.000E+00 0.000E+00 0.000E+00 0.000E+00 0.000E+00
BIGSUB   11        0 1988.12618E+03   458.311     0.000  2213.223   258.822   294.676    67.270    83.270     0.000    94.022     7.510     0.123     0.015     0.000     0.046     4.979     7.869     0.061     0.000 .00000E+00 0.000E+00 0.000E+00 0.000E+00 0.000E+00 0.000E+00
BIGSUB   12        0 1988.10306E+03   459.451     0.000  2219.481   250.276   273.760    18.138   120.904     0.000   126.463    14.282     0.164     0.020     0.000     0.057     7.939     4.786     0.056     0.000 .00000E+00 0.000E+00 0.000E+00 0.000E+00 0.000E+00 0.000E+00
BIGSUB   13        0 1988.10485E+02   459.451     0.000  2223.157   296.775   254.901    26.481    30.885     0.000    42.676     4.004     0.077     0.009     0.001     0.018     2.408    10.668     0.088     0.000 .00000E+00 0.000E+00 0.000E+00 0.000E+00 0.000E+00 0.000E+00
BIGSUB   14        0 1988.63210E+02   457.009     0.000  2208.967   268.535   266.721    47.308    64.982     0.000    89.253     9.943     0.148     0.018     0.001     0.034     5.337    22.231     0.133     0.000 .00000E+00 0.000E+00 0.000E+00 0.000E+00 0.000E+00 0.000E+00
BIGSUB   15        0 1988.25762E+01   459.451     0.000  2228.084   317.289   146.497     0.330     3.614     0.000    81.807     0.435     0.040     0.005     0.001     0.002     0.266    78.178     0.245     0.000 .00000E+00 0.000E+00 0.000E+00 0.000E+00 0.000E+00 0.000E+00
BIGSUB   16        0 1988.18897E+03   458.747     0.000  2166.806   241.224   261.635     0.000   143.548     0.000   145.298    18.846     0.173     0.021     0.000     0.060     8.987     1.749     0.017     0.000 .00000E+00 0.000E+00 0.000E+00 0.000E+00 0.000E+00 0.000E+00
BIGSUB   17        0 1988.86112E+02   459.451     0.000  2094.408   258.517   289.464    70.084    78.808     0.000    93.291     6.567     0.116     0.014     0.000     0.045     4.556    11.434     0.070     0.000 .00000E+00 0.000E+00 0.000E+00 0.000E+00 0.000E+00 0.000E+00
BIGSUB   18        0 1988.12506E+03   459.272     0.000  1987.390   222.543   276.214     0.000   180.514     0.000   182.412    10.637     0.152     0.019     0.000     0.092     7.744     1.898     0.031     0.000 .00000E+00 0.000E+00 0.000E+00 0.000E+00 0.000E+00 0.000E+00
BIGSUB   19        0 1988.68335E+02   459.451     0.000  2093.637   246.393   279.704    22.444   121.402     0.000   125.871    10.144     0.130     0.016     0.000     0.061     6.124     3.485     0.042     0.000 .00000E+00 0.000E+00 0.000E+00 0.000E+00 0.000E+00 0.000E+00
BIGSUB   20        0 1988.11691E+03   459.451     0.000  1989.399   228.701   270.658     0.000   166.091     0.000   167.639    12.052     0.148     0.018     0.000     0.079     7.580     1.549     0.021     0.000 .00000E+00 0.000E+00 0.000E+00 0.000E+00 0.000E+00 0.000E+00
BIGSUB   21        0 1988.99067E+02   507.988     0.000  2042.271   217.873   263.519     0.000   194.248     0.000   195.131    10.374     0.153     0.019     0.000     0.090     7.784     0.883     0.009     0.000 .00000E+00 0.000E+00 0.000E+00 0.000E+00 0.000E+00 0.000E+00
BIGSUB   22        0 1988.15130E+01   497.833     0.000  2085.660   208.949   219.002     2.799   136.064     0.000   198.835    38.722     0.232     0.028     0.000     0.056    12.308    62.641     0.681     0.000 .00000E+00 0.000E+00 0.000E+00 0.000E+00 0.000E+00 0.000E+00
BIGSUB   23        0 1988.28187E+03   458.508     0.000  2157.743   271.170   212.723    36.680    56.995     0.000   110.240    17.536     0.139     0.017     0.000     0.026     5.288    51.644     0.292     0.000 .00000E+00 0.000E+00 0.000E+00 0.000E+00 0.000E+00 0.000E+00
BIGSUB   24        0 1988.68344E+01   507.988     0.000  2054.829   244.147   130.507     4.934    27.680     0.000   179.407    14.970     0.102     0.013     0.000     0.010     4.254   151.497     0.703     0.000 .00000E+00 0.000E+00 0.000E+00 0.000E+00 0.000E+00 0.000E+00
BIGSUB   25        0 1988.15704E+03   507.146     0.000  2114.898   227.843   163.512    19.198    70.785     0.000   191.259    39.241     0.195     0.024     0.000     0.025     9.125   119.637     0.761     0.000 .00000E+00 0.000E+00 0.000E+00 0.000E+00 0.000E+00 0.000E+00
BIGSUB   26        0 1988.16121E+02   507.988     0.000  2043.695   221.822   199.049    53.865    86.789     0.000   181.094    24.359     0.176     0.021     0.000     0.041     8.239    91.992     0.616     0.000 .00000E+00 0.000E+00 0.000E+00 0.000E+00 0.000E+00 0.000E+00
BIGSUB   27        0 1988.74006E+02   507.988     0.000  2049.298   223.242   219.577    21.474   108.547     0.000   178.741    33.559     0.220     0.027     0.000     0.043    10.617    69.258     0.580     0.000 .00000E+00 0.000E+00 0.000E+00 0.000E+00 0.000E+00 0.000E+00
BIGSUB   28        0 1988.85599E+02   507.988     0.000  2043.520   215.028   251.641     3.765   183.488     0.000   199.822    27.638     0.227     0.028     0.000     0.069    11.645    16.158     0.182     0.000 .00000E+00 0.000E+00 0.000E+00 0.000E+00 0.000E+00 0.000E+00
BIGSUB   29        0 1988.11585E+03   507.821     0.000  1940.166   207.320   276.081    13.774   208.999     0.000   213.026    17.615     0.193     0.024     0.000     0.094     9.734     3.380     0.066     0.000 .00000E+00 0.000E+00 0.000E+00 0.000E+00 0.000E+00 0.000E+00
BIGSUB   30        0 1988.38028E+02   507.988     0.000  1942.089   205.012   265.365    28.141   208.836     0.000   211.709    14.004     0.169     0.021     0.000     0.091     8.179     1.551     0.028     0.000 .00000E+00 0.000E+00 0.000E+00 0.000E+00 0.000E+00 0.000E+00
BIGSUB   31        0 1988.16373E+03   507.988     0.000  2043.324   211.619   246.794     7.365   181.846     0.000   204.572    31.412     0.241     0.030     0.000     0.067    11.982    22.381     0.233     0.000 .00000E+00 0.000E+00 0.000E+00 0.000E+00 0.000E+00 0.000E+00
BIGSUB   32        0 1988.11085E+03   507.355     0.000  2096.604   216.490   262.300   148.810   103.654    11.422   141.554     7.746     0.114     0.014     0.000     0.055     5.170    20.214     0.088     0.009 .00000E+00 0.000E+00 0.000E+00 0.000E+00 0.000E+00 0.000E+00
BIGSUB   33        0 1988.76515E+02   507.988     0.000  1941.871   205.850   271.680    39.754   200.315     0.000   206.270    19.491     0.196     0.024     0.000     0.085     9.588     4.087     0.082     0.000 .00000E+00 0.000E+00 0.000E+00 0.000E+00 0.000E+00 0.000E+00
BIGSUB   34        0 1988.69117E+02   507.384     0.000  1938.303   207.545   279.217     0.000   216.767     0.000   219.390    17.092     0.199     0.024     0.000     0.098    10.230     2.622     0.046     0.000 .00000E+00 0.000E+00 0.000E+00 0.000E+00 0.000E+00 0.000E+00
BIGSUB   35        0 1988.13201E+03   507.988     0.000  2043.607   219.825   217.623    31.865   108.607     0.000   181.323    36.534     0.231     0.028     0.000     0.043    10.717    71.334     0.534     0.000 .00000E+00 0.000E+00 0.000E+00 0.000E+00 0.000E+00 0.000E+00
BIGSUB   36        0 1988.16060E+03   507.988     0.000  1941.580   206.944   272.044     0.000   218.289     0.000   219.797    14.441     0.176     0.022     0.000     0.099     8.925     1.508     0.024     0.000 .00000E+00 0.000E+00 0.000E+00 0.000E+00 0.000E+00 0.000E+00
BIGSUB   37        0 1988.15721E+03   507.988     0.000  2041.787   212.719   267.790    17.616   188.722     0.000   199.459    22.870     0.213     0.026     0.000     0.077    10.594     9.912     0.116     0.000 .00000E+00 0.000E+00 0.000E+00 0.000E+00 0.000E+00 0.000E+00
BIGSUB   38        0 1988.12493E+00   507.988     0.000  2043.140   208.178   281.597    43.242   200.029     0.000   203.074     4.597     0.073     0.009     0.000     0.109     3.501     1.015     0.023     0.000 .00000E+00 0.000E+00 0.000E+00 0.000E+00 0.000E+00 0.000E+00
BIGSUB   39        0 1988.73199E+02   507.988     0.000  1901.283   201.850   264.117    13.634   213.994     0.000   219.918    26.243     0.229     0.028     0.000     0.081    11.190     5.284     0.073     0.000 .00000E+00 0.000E+00 0.000E+00 0.000E+00 0.000E+00 0.000E+00
BIGSUB   40        0 1988.11658E+03   507.590     0.000  2040.714   212.503   274.396    60.897   165.955     0.000   184.716    26.141     0.218     0.027     0.000     0.070    10.652    16.117     0.195     0.000 .00000E+00 0.000E+00 0.000E+00 0.000E+00 0.000E+00 0.000E+00
BIGSUB   41        0 1988.17248E+02   507.988     0.000  1903.234   206.902   274.856    24.309   201.789     0.000   206.493    21.661     0.208     0.025     0.000     0.082    10.377     3.666     0.048     0.000 .00000E+00 0.000E+00 0.000E+00 0.000E+00 0.000E+00 0.000E+00
BIGSUB   42        0 1988.94303E+02   507.988     0.000  1901.347   205.323   267.826     7.087   210.953     0.000   216.586    31.594     0.266     0.033     0.000     0.071    13.368     5.301     0.072     0.000 .00000E+00 0.000E+00 0.000E+00 0.000E+00 0.000E+00 0.000E+00
BIGSUB   43        0 1988.14154E+03   507.988     0.000  1801.245   199.084   261.128     0.000   222.445     0.000   228.080    21.340     0.201     0.025     0.000     0.090     9.913     5.634     0.066     0.000 .00000E+00 0.000E+00 0.000E+00 0.000E+00 0.000E+00 0.000E+00
BIGSUB   44        0 1988.20450E+03   507.197     0.000  1897.391   225.661   265.304    47.844   135.493     0.000   151.353    17.113     0.240     0.031     0.002     0.057     7.793    13.758     0.099     0.000 .00000E+00 0.000E+00 0.000E+00 0.000E+00 0.000E+00 0.000E+00
BIGSUB   45        0 1988.73063E+02   507.988     0.000  1802.262   198.361   263.559     0.000   226.711     0.000   229.572    17.920     0.187     0.023     0.000     0.095     9.159     2.861     0.031     0.000 .00000E+00 0.000E+00 0.000E+00 0.000E+00 0.000E+00 0.000E+00
BIGSUB   46        0 1988.12644E+01   507.988     0.000  1802.745   199.140   268.541    16.355   220.374     0.000   221.916     5.931     0.090     0.011     0.000     0.114     4.364     0.829     0.014     0.000 .00000E+00 0.000E+00 0.000E+00 0.000E+00 0.000E+00 0.000E+00
BIGSUB   47        0 1988.87448E+02   507.988     0.000  1802.455   200.599   282.181     0.724   229.611     0.000   230.296     9.039     0.134     0.016     0.000     0.114     6.929     0.651     0.012     0.000 .00000E+00 0.000E+00 0.000E+00 0.000E+00 0.000E+00 0.000E+00
BIGSUB   48        0 1988.12017E+03   507.010     0.000  1798.629   199.672   285.700     0.674   231.382     0.000   232.153     9.131     0.143     0.017     0.000     0.115     7.314     0.740     0.014     0.000 .00000E+00 0.000E+00 0.000E+00 0.000E+00 0.000E+00 0.000E+00
BIGSUB   49        0 1988.15298E+03   507.988     0.000  1902.102   201.558   273.742    29.013   198.763     0.000   213.999    25.505     0.233     0.029     0.000     0.080    11.341    13.875     0.148     0.000 .00000E+00 0.000E+00 0.000E+00 0.000E+00 0.000E+00 0.000E+00
BIGSUB   50        0 1988.76393E+02   506.768     0.000  1797.906   198.671   291.281    58.161   203.837     0.000   209.298    14.916     0.177     0.022     0.000     0.090     8.555     2.727     0.064     0.000 .00000E+00 0.000E+00 0.000E+00 0.000E+00 0.000E+00 0.000E+00
BIGSUB   51        0 1988.90351E+02   507.988     0.000  1802.810   200.571   272.479     0.187   226.578     0.000   227.460     9.740     0.135     0.016     0.000     0.109     6.674     0.873     0.012     0.000 .00000E+00 0.000E+00 0.000E+00 0.000E+00 0.000E+00 0.000E+00
BIGSUB   52        0 1988.35425E+02   507.988     0.000  1802.621   199.545   271.342     0.000   229.248     0.000   230.093     8.198     0.123     0.015     0.000     0.115     6.160     0.845     0.012     0.000 .00000E+00 0.000E+00 0.000E+00 0.000E+00 0.000E+00 0.000E+00
BIGSUB   53        0 1988.68855E+02   507.988     0.000  1802.680   199.973   262.913     0.000   225.866     0.000   227.097    11.707     0.166     0.020     0.000     0.099     8.076     1.232     0.014     0.000 .00000E+00 0.000E+00 0.000E+00 0.000E+00 0.000E+00 0.000E+00
BIGSUB   54        0 1988.80750E+02   506.623     0.000  1893.929   204.710   285.368    91.043   174.123     0.000   181.337    14.776     0.179     0.022     0.000     0.079     8.297     3.232     0.061     0.000 .00000E+00 0.000E+00 0.000E+00 0.000E+00 0.000E+00 0.000E+00
BIGSUB   55        0 1988.19802E+03   507.988     0.000  1802.645   200.160   268.132     0.000   225.391     0.000   226.431    11.390     0.155     0.019     0.000     0.102     7.561     1.040     0.013     0.000 .00000E+00 0.000E+00 0.000E+00 0.000E+00 0.000E+00 0.000E+00
BIGSUB   56        0 1988.80623E+02   507.644     0.000  1801.352   199.888   271.700    18.992   218.469     0.000   221.230    13.208     0.160     0.020     0.000     0.099     7.845     1.867     0.037     0.000 .00000E+00 0.000E+00 0.000E+00 0.000E+00 0.000E+00 0.000E+00
BIGSUB   57        0 1988.12089E+03   507.988     0.000  1902.580   201.895   272.136    23.868   215.036     0.000   217.490    13.760     0.166     0.020     0.000     0.095     8.093     1.335     0.024     0.000 .00000E+00 0.000E+00 0.000E+00 0.000E+00 0.000E+00 0.000E+00
BIGSUB   58        0 1988.41754E+01   507.988     0.000  1902.607   208.342   271.994    30.910   192.328     0.000   196.032     9.104     0.117     0.014     0.001     0.094     5.433     2.259     0.042     0.000 .00000E+00 0.000E+00 0.000E+00 0.000E+00 0.000E+00 0.000E+00
BIGSUB   59        0 1988.87078E+02   507.930     0.000  1801.807   199.539   276.683    26.971   216.276     0.000   219.810    14.510     0.171     0.021     0.000     0.096     8.377     2.266     0.048     0.000 .00000E+00 0.000E+00 0.000E+00 0.000E+00 0.000E+00 0.000E+00
BIGSUB   60        0 1988.74524E+02   507.988     0.000  1901.352   204.624   263.809     0.000   219.054     0.000   221.002    14.763     0.168     0.021     0.000     0.098     8.348     1.949     0.023     0.000 .00000E+00 0.000E+00 0.000E+00 0.000E+00 0.000E+00 0.000E+00
BIGSUB   61        0 1988.54974E+02   507.678     0.000  1901.647   203.333   267.942     6.544   220.531     0.000   221.858     9.786     0.130     0.016     0.000     0.108     6.387     1.020     0.016     0.000 .00000E+00 0.000E+00 0.000E+00 0.000E+00 0.000E+00 0.000E+00
BIGSUB   62        0 1988.30078E+02   507.677     0.000  1900.680   203.293   262.090     0.000   222.562     0.000   224.403    11.026     0.149     0.018     0.000     0.107     7.356     1.842     0.024     0.000 .00000E+00 0.000E+00 0.000E+00 0.000E+00 0.000E+00 0.000E+00
BIGSUB   63        0 1988.71547E+02   506.517     0.000  1895.680   202.831   266.250     6.957   218.680     0.000   221.547    14.291     0.174     0.021     0.000     0.099     8.541     2.541     0.037     0.000 .00000E+00 0.000E+00 0.000E+00 0.000E+00 0.000E+00 0.000E+00
BIGSUB   64        0 1988.92785E+02   507.750     0.000  1901.878   204.231   265.388     0.000   221.214     0.000   222.467    10.963     0.133     0.016     0.000     0.108     6.583     1.253     0.016     0.000 .00000E+00 0.000E+00 0.000E+00 0.000E+00 0.000E+00 0.000E+00
BIGSUB   65        0 1988.97995E+02   507.988     0.000  1802.930   198.930   274.829    40.834   210.167     0.000   214.161    12.808     0.157     0.019     0.000     0.094     7.637     2.077     0.043     0.000 .00000E+00 0.000E+00 0.000E+00 0.000E+00 0.000E+00 0.000E+00
BIGSUB   66        0 1988.59743E+02   507.988     0.000  1802.875   198.851   264.729     8.665   224.513     0.000   226.136     9.800     0.122     0.015     0.000     0.108     5.931     1.216     0.020     0.000 .00000E+00 0.000E+00 0.000E+00 0.000E+00 0.000E+00 0.000E+00
BIGSUB   67        0 1988.70663E+02   507.988     0.000  1802.932   200.290   266.844     8.191   222.294     0.000   223.878     9.684     0.147     0.018     0.000     0.102     7.134     1.200     0.016     0.000 .00000E+00 0.000E+00 0.000E+00 0.000E+00 0.000E+00 0.000E+00
BIGSUB   68        0 1988.66453E+02   507.988     0.000  1881.356   200.952   273.333    29.577   211.875     0.000   216.126    16.308     0.180     0.022     0.000     0.092     8.806     2.861     0.060     0.000 .00000E+00 0.000E+00 0.000E+00 0.000E+00 0.000E+00 0.000E+00
BIGSUB   69        0 1988.11060E+03   507.988     0.000  1899.060   203.287   275.638    18.833   213.813     0.000   215.955    11.967     0.153     0.019     0.000     0.099     7.450     1.258     0.022     0.000 .00000E+00 0.000E+00 0.000E+00 0.000E+00 0.000E+00 0.000E+00
BIGSUB   70        0 1988.13450E+03   507.956     0.000  1899.345   203.287   288.546    46.672   204.446     0.000   208.094     8.394     0.139     0.017     0.000     0.101     6.734     1.457     0.035     0.000 .00000E+00 0.000E+00 0.000E+00 0.000E+00 0.000E+00 0.000E+00
BIGSUB   71        0 1988.24406E+03   507.131     0.000  1878.514   200.276   283.023    44.556   208.134     0.000   212.009    13.277     0.170     0.021     0.000     0.093     8.272     1.782     0.037     0.000 .00000E+00 0.000E+00 0.000E+00 0.000E+00 0.000E+00 0.000E+00
BIGSUB    1        0 1989.10173E+03   206.279     0.000  2368.922   200.877   226.984    27.466    37.043     0.000    40.360     2.076     0.130     0.020     0.041     0.019     1.610     1.580     0.017     0.000 .00000E+00 0.000E+00 0.000E+00 0.000E+00 0.000E+00 0.000E+00
BIGSUB    2        0 1989.15911E+03   205.856     0.000  2364.702   193.156   241.293    26.199    43.823     0.000    46.247     2.444     0.133     0.018     0.040     0.021     1.872     0.853     0.013     0.000 .00000E+00 0.000E+00 0.000E+00 0.000E+00 0.000E+00 0.000E+00
BIGSUB    3        0 1989.89835E+02   206.060     0.000  2366.902   193.099   257.016    35.352    37.642     0.000    41.105     3.168     0.042     0.005     0.000     0.016     1.988     1.268     0.021     0.000 .00000E+00 0.000E+00 0.000E+00 0.000E+00 0.000E+00 0.000E+00
BIGSUB    4        0 1989.15209E+02   206.458     0.000  2374.952   191.821   261.472    37.133    37.524     0.000    40.154     0.910     0.023     0.003     0.000     0.019     1.026     0.286     0.006     0.000 .00000E+00 0.000E+00 0.000E+00 0.000E+00 0.000E+00 0.000E+00
BIGSUB    5        0 1989.65675E+02   206.458     0.000  2374.370   190.055   212.864     7.414    58.205     0.000    59.428     3.538     0.040     0.005     0.000     0.023     2.000     0.767     0.003     0.000 .00000E+00 0.000E+00 0.000E+00 0.000E+00 0.000E+00 0.000E+00
BIGSUB    6        0 1989.16063E+03   206.423     0.000  2372.862   203.760   240.015    24.468    39.146     0.000    41.696     2.134     0.037     0.004     0.001     0.018     1.515     1.059     0.011     0.000 .00000E+00 0.000E+00 0.000E+00 0.000E+00 0.000E+00 0.000E+00
BIGSUB    7        0 1989.36382E+01   206.458     0.000  2377.091   190.443   260.021    35.584    38.114     0.000    41.143     1.148     0.024     0.003     0.000     0.020     1.061     0.723     0.011     0.000 .00000E+00 0.000E+00 0.000E+00 0.000E+00 0.000E+00 0.000E+00
BIGSUB    8        0 1989.83411E+02   206.458     0.000  2324.958   190.332   218.828     7.328    57.882     0.000    58.951     3.098     0.039     0.005     0.000     0.024     1.951     0.607     0.004     0.000 .00000E+00 0.000E+00 0.000E+00 0.000E+00 0.000E+00 0.000E+00
BIGSUB    9        0 1989.13927E+01   206.458     0.000  2377.546   199.496   239.816    27.481    38.674     0.000    41.906     0.583     0.014     0.002     0.001     0.022     0.553     1.465     0.010     0.000 .00000E+00 0.000E+00 0.000E+00 0.000E+00 0.000E+00 0.000E+00
BIGSUB   10        0 1989.81416E+02   205.907     0.000  2316.346   188.741   203.940     0.000    63.205     0.000    64.411     5.396     0.050     0.006     0.000     0.021     2.568     1.206     0.003     0.000 .00000E+00 0.000E+00 0.000E+00 0.000E+00 0.000E+00 0.000E+00
BIGSUB   11        0 1989.12618E+03   205.946     0.000  2369.023   210.632   227.932    29.244    29.799     0.000    36.137     1.523     0.034     0.004     0.001     0.015     1.226     4.500     0.029     0.000 .00000E+00 0.000E+00 0.000E+00 0.000E+00 0.000E+00 0.000E+00
BIGSUB   12        0 1989.10306E+03   206.458     0.000  2375.772   203.027   215.983     8.658    51.084     0.000    54.026     3.605     0.050     0.006     0.001     0.021     2.283     2.407     0.011     0.000 .00000E+00 0.000E+00 0.000E+00 0.000E+00 0.000E+00 0.000E+00
BIGSUB   13        0 1989.10485E+02   206.458     0.000  2380.274   257.255   168.785    16.947    14.324     0.000    21.617     0.822     0.038     0.005     0.003     0.008     0.672     6.309     0.039     0.000 .00000E+00 0.000E+00 0.000E+00 0.000E+00 0.000E+00 0.000E+00
BIGSUB   14        0 1989.63210E+02   205.360     0.000  2364.748   217.904   196.729    23.714    25.116     0.000    38.845     1.970     0.048     0.006     0.002     0.012     1.329    12.300     0.065     0.000 .00000E+00 0.000E+00 0.000E+00 0.000E+00 0.000E+00 0.000E+00
BIGSUB   15        0 1989.25762E+01   206.458     0.000  2386.337   242.684    73.421     2.900     3.743     0.000    46.441     0.164     0.027     0.004     0.003     0.002     0.171    42.563     0.178     0.000 .00000E+00 0.000E+00 0.000E+00 0.000E+00 0.000E+00 0.000E+00
BIGSUB   16        0 1989.18897E+03   206.142     0.000  2318.524   192.437   213.802     0.000    61.061     0.000    61.968     4.774     0.050     0.006     0.000     0.022     2.616     0.907     0.004     0.000 .00000E+00 0.000E+00 0.000E+00 0.000E+00 0.000E+00 0.000E+00
BIGSUB   17        0 1989.86112E+02   206.458     0.000  2239.532   210.817   222.045    29.906    28.753     0.000    37.033     1.283     0.034     0.004     0.001     0.015     1.113     6.399     0.039     0.000 .00000E+00 0.000E+00 0.000E+00 0.000E+00 0.000E+00 0.000E+00
BIGSUB   18        0 1989.12506E+03   206.377     0.000  2120.486   173.373   233.199     0.000    75.563     0.000    76.405     2.716     0.044     0.005     0.000     0.034     2.279     0.842     0.003     0.000 .00000E+00 0.000E+00 0.000E+00 0.000E+00 0.000E+00 0.000E+00
BIGSUB   19        0 1989.68335E+02   206.458     0.000  2238.560   201.187   220.658    12.172    50.996     0.000    53.591     2.340     0.042     0.005     0.001     0.023     1.725     1.880     0.011     0.000 .00000E+00 0.000E+00 0.000E+00 0.000E+00 0.000E+00 0.000E+00
BIGSUB   20        0 1989.11691E+03   206.458     0.000  2122.909   181.538   225.501     0.000    69.684     0.000    70.398     2.976     0.043     0.005     0.000     0.030     2.193     0.714     0.002     0.000 .00000E+00 0.000E+00 0.000E+00 0.000E+00 0.000E+00 0.000E+00
BIGSUB   21        0 1989.99067E+02   342.462    29.603  2137.156   180.266   243.746     0.000   181.457     0.000   182.077     9.935     0.131     0.016     0.000     0.071     6.667     0.620     0.008     0.000 .00000E+00 0.000E+00 0.000E+00 0.000E+00 0.000E+00 0.000E+00
BIGSUB   22        0 1989.15130E+01   335.615    29.481  2187.782   175.674   193.540     6.055   149.284     0.000   192.367    42.908     0.207     0.025     0.000     0.046    11.129    42.789     0.407     0.000 .00000E+00 0.000E+00 0.000E+00 0.000E+00 0.000E+00 0.000E+00
BIGSUB   23        0 1989.28187E+03   206.034     0.000  2310.742   213.004   147.866    16.427    21.785     0.000    50.429     3.295     0.044     0.006     0.002     0.009     1.250    27.623     0.122     0.000 .00000E+00 0.000E+00 0.000E+00 0.000E+00 0.000E+00 0.000E+00
BIGSUB   24        0 1989.68344E+01   342.462    29.560  2152.189   214.245    86.958    24.303    42.854     0.000   157.510    18.978     0.233     0.032     0.002     0.014     4.988   113.501     0.413     0.000 .00000E+00 0.000E+00 0.000E+00 0.000E+00 0.000E+00 0.000E+00
BIGSUB   25        0 1989.15704E+03   341.894    29.509  2217.212   196.228   127.672    22.675    80.567     0.000   168.248    45.416     0.230     0.029     0.001     0.021     7.962    86.493     0.366     0.000 .00000E+00 0.000E+00 0.000E+00 0.000E+00 0.000E+00 0.000E+00
BIGSUB   26        0 1989.16121E+02   342.462    29.598  2138.836   189.791   158.622    42.950    90.870     0.000   158.354    28.756     0.202     0.025     0.001     0.034     7.969    65.072     0.319     0.000 .00000E+00 0.000E+00 0.000E+00 0.000E+00 0.000E+00 0.000E+00
BIGSUB   27        0 1989.74006E+02   342.462    29.579  2145.551   189.506   183.396    27.084   119.895     0.000   168.292    38.149     0.253     0.033     0.002     0.037     9.632    46.990     0.274     0.000 .00000E+00 0.000E+00 0.000E+00 0.000E+00 0.000E+00 0.000E+00
BIGSUB   28        0 1989.85599E+02   342.462    29.599  2138.582   178.136   228.215     5.729   173.194     0.000   183.569    25.671     0.174     0.021     0.000     0.049     9.028    10.093     0.066     0.000 .00000E+00 0.000E+00 0.000E+00 0.000E+00 0.000E+00 0.000E+00
BIGSUB   29        0 1989.11585E+03   342.349    29.710  2026.525   171.755   241.338    19.959   183.548     0.000   186.839    14.426     0.143     0.018     0.000     0.068     7.290     2.309     0.035     0.000 .00000E+00 0.000E+00 0.000E+00 0.000E+00 0.000E+00 0.000E+00
BIGSUB   30        0 1989.38028E+02   342.462    29.705  2028.700   170.365   232.583    26.108   177.777     0.000   180.221    11.250     0.127     0.016     0.000     0.065     6.184     1.129     0.013     0.000 .00000E+00 0.000E+00 0.000E+00 0.000E+00 0.000E+00 0.000E+00
BIGSUB   31        0 1989.16373E+03   342.462    29.600  2138.383   176.001   221.489    10.897   168.356     0.000   182.897    29.555     0.183     0.022     0.000     0.047     9.163    14.003     0.102     0.000 .00000E+00 0.000E+00 0.000E+00 0.000E+00 0.000E+00 0.000E+00
BIGSUB   32        0 1989.11085E+03   342.035    29.566  2195.543   183.249   208.932   100.572    96.817    54.130   173.462     6.786     0.119     0.015     0.000     0.045     4.635    16.553     0.051     0.018 .00000E+00 0.000E+00 0.000E+00 0.000E+00 0.000E+00 0.000E+00
BIGSUB   33        0 1989.76515E+02   342.462    29.706  2028.453   172.105   230.934    38.331   170.259     0.000   175.202    15.427     0.139     0.017     0.000     0.059     6.893     3.017     0.042     0.000 .00000E+00 0.000E+00 0.000E+00 0.000E+00 0.000E+00 0.000E+00
BIGSUB   34        0 1989.69117E+02   342.054    29.711  2024.483   170.939   244.760    11.909   192.614     0.000   194.763    14.348     0.150     0.018     0.000     0.070     7.757     1.589     0.028     0.000 .00000E+00 0.000E+00 0.000E+00 0.000E+00 0.000E+00 0.000E+00
BIGSUB   35        0 1989.13201E+03   342.462    29.599  2138.665   186.231   181.415    31.118   118.009     0.000   167.547    42.982     0.271     0.036     0.002     0.037     9.849    47.867     0.349     0.000 .00000E+00 0.000E+00 0.000E+00 0.000E+00 0.000E+00 0.000E+00
BIGSUB   36        0 1989.16060E+03   342.462    29.708  2028.019   170.185   242.792     8.285   192.444     0.000   193.791    12.016     0.135     0.017     0.000     0.073     6.889     0.957     0.015     0.000 .00000E+00 0.000E+00 0.000E+00 0.000E+00 0.000E+00 0.000E+00
BIGSUB   37        0 1989.15721E+03   342.462    29.605  2136.446   177.039   236.973    19.144   171.583     0.000   179.057    20.564     0.160     0.020     0.000     0.056     8.070     6.518     0.071     0.000 .00000E+00 0.000E+00 0.000E+00 0.000E+00 0.000E+00 0.000E+00
BIGSUB   38        0 1989.12493E+00   342.461    29.601  2138.044   174.393   238.063    42.430   168.458     0.000   171.382     3.673     0.059     0.007     0.000     0.086     2.844     0.793     0.010     0.000 .00000E+00 0.000E+00 0.000E+00 0.000E+00 0.000E+00 0.000E+00
BIGSUB   39        0 1989.73199E+02   342.462    29.781  1984.679   167.189   238.182    13.868   184.437     0.000   188.683    21.339     0.159     0.019     0.000     0.054     7.832     3.550     0.040     0.000 .00000E+00 0.000E+00 0.000E+00 0.000E+00 0.000E+00 0.000E+00
BIGSUB   40        0 1989.11658E+03   342.193    29.604  2135.375   177.841   233.964    45.538   150.258     0.000   163.430    23.888     0.164     0.020     0.000     0.049     8.081    10.628     0.075     0.000 .00000E+00 0.000E+00 0.000E+00 0.000E+00 0.000E+00 0.000E+00
BIGSUB   41        0 1989.17248E+02   342.462    29.772  1987.141   171.240   245.968    18.901   179.311     0.912   183.688    18.137     0.152     0.019     0.000     0.057     7.630     2.393     0.025     0.000 .00000E+00 0.000E+00 0.000E+00 0.000E+00 0.000E+00 0.000E+00
BIGSUB   42        0 1989.94303E+02   342.462    29.781  1984.703   169.690   241.780     9.654   186.489     0.000   190.354    26.669     0.182     0.022     0.000     0.045     9.219     3.388     0.039     0.000 .00000E+00 0.000E+00 0.000E+00 0.000E+00 0.000E+00 0.000E+00
BIGSUB   43        0 1989.14154E+03   342.462    29.863  1877.760   164.550   238.649     4.962   192.542     0.000   196.278    17.265     0.141     0.017     0.000     0.063     7.044     3.502     0.026     0.000 .00000E+00 0.000E+00 0.000E+00 0.000E+00 0.000E+00 0.000E+00
BIGSUB   44        0 1989.20450E+03   341.928    29.786  1980.359   192.674   212.997    53.746   139.191     1.339   154.158    15.700     0.423     0.063     0.006     0.052     7.004    10.808     0.049     0.000 .00000E+00 0.000E+00 0.000E+00 0.000E+00 0.000E+00 0.000E+00
BIGSUB   45        0 1989.73063E+02   342.462    29.858  1878.960   163.921   239.946     6.248   194.417     0.000   196.498    14.258     0.134     0.016     0.000     0.068     6.607     1.787     0.019     0.000 .00000E+00 0.000E+00 0.000E+00 0.000E+00 0.000E+00 0.000E+00
BIGSUB   46        0 1989.12644E+01   342.462    29.855  1879.619   164.838   239.433    18.422   187.767     3.107   192.444     4.705     0.071     0.009     0.000     0.090     3.455     0.592     0.007     0.001 .00000E+00 0.000E+00 0.000E+00 0.000E+00 0.000E+00 0.000E+00
BIGSUB   47        0 1989.87448E+02   342.462    29.856  1879.287   166.429   246.313    15.416   196.097     0.000   197.285     7.341     0.102     0.013     0.000     0.085     5.294     0.460     0.010     0.000 .00000E+00 0.000E+00 0.000E+00 0.000E+00 0.000E+00 0.000E+00
BIGSUB   48        0 1989.12017E+03   341.802    29.858  1875.228   165.869   246.292    18.475   196.792     0.000   198.184     7.510     0.108     0.013     0.000     0.085     5.587     0.520     0.012     0.000 .00000E+00 0.000E+00 0.000E+00 0.000E+00 0.000E+00 0.000E+00
BIGSUB   49        0 1989.15298E+03   342.462    29.778  1985.659   168.309   238.035    29.867   172.309     0.000   182.873    22.217     0.167     0.020     0.000     0.054     8.227     9.067     0.103     0.000 .00000E+00 0.000E+00 0.000E+00 0.000E+00 0.000E+00 0.000E+00
BIGSUB   50        0 1989.76393E+02   341.639    29.848  1872.488   167.569   242.112    54.686   167.159     0.000   172.032    10.913     0.120     0.015     0.000     0.062     5.843     2.123     0.028     0.000 .00000E+00 0.000E+00 0.000E+00 0.000E+00 0.000E+00 0.000E+00
BIGSUB   51        0 1989.90351E+02   342.461    29.855  1879.657   165.929   244.547     9.049   194.895     0.000   195.891     7.876     0.103     0.013     0.000     0.083     5.141     0.570     0.007     0.000 .00000E+00 0.000E+00 0.000E+00 0.000E+00 0.000E+00 0.000E+00
BIGSUB   52        0 1989.35425E+02   342.462    29.846  1877.491   165.089   241.812    10.785   195.594     0.000   196.663     6.311     0.093     0.011     0.000     0.088     4.688     0.562     0.008     0.000 .00000E+00 0.000E+00 0.000E+00 0.000E+00 0.000E+00 0.000E+00
BIGSUB   53        0 1989.68855E+02   342.462    29.857  1879.423   165.133   240.789     4.466   194.340     0.000   195.328    10.034     0.125     0.015     0.000     0.072     6.145     0.779     0.007     0.000 .00000E+00 0.000E+00 0.000E+00 0.000E+00 0.000E+00 0.000E+00
BIGSUB   54        0 1989.80750E+02   341.541    29.793  1976.375   171.469   239.932    65.156   148.716     2.266   157.175    11.822     0.134     0.016     0.000     0.056     6.314     2.536     0.023     0.001 .00000E+00 0.000E+00 0.000E+00 0.000E+00 0.000E+00 0.000E+00
BIGSUB   55        0 1989.19802E+03   342.462    29.857  1879.346   165.376   244.412     5.814   194.442     0.000   195.376     9.554     0.117     0.014     0.000     0.075     5.760     0.661     0.007     0.000 .00000E+00 0.000E+00 0.000E+00 0.000E+00 0.000E+00 0.000E+00
BIGSUB   56        0 1989.80623E+02   342.230    29.847  1876.084   166.269   241.381    20.078   185.128     0.000   187.502     9.896     0.114     0.014     0.000     0.072     5.611     1.372     0.017     0.000 .00000E+00 0.000E+00 0.000E+00 0.000E+00 0.000E+00 0.000E+00
BIGSUB   57        0 1989.12089E+03   342.462    29.776  1986.169   167.533   240.851    23.035   182.312     0.000   184.441    11.086     0.124     0.015     0.000     0.068     6.096     0.971     0.011     0.000 .00000E+00 0.000E+00 0.000E+00 0.000E+00 0.000E+00 0.000E+00
BIGSUB   58        0 1989.41754E+01   342.462    29.777  1986.154   176.025   228.594    39.626   168.764     0.000   172.409     7.283     0.103     0.013     0.002     0.075     4.198     1.683     0.021     0.000 .00000E+00 0.000E+00 0.000E+00 0.000E+00 0.000E+00 0.000E+00
BIGSUB   59        0 1989.87078E+02   342.423    29.853  1876.274   166.614   240.854    28.489   181.714     0.000   184.832    10.837     0.119     0.015     0.000     0.068     5.864     1.696     0.022     0.000 .00000E+00 0.000E+00 0.000E+00 0.000E+00 0.000E+00 0.000E+00
BIGSUB   60        0 1989.74524E+02   342.462    29.782  1984.623   168.403   241.132     3.492   192.244     0.000   193.633    12.485     0.128     0.016     0.000     0.073     6.403     1.225     0.013     0.000 .00000E+00 0.000E+00 0.000E+00 0.000E+00 0.000E+00 0.000E+00
BIGSUB   61        0 1989.54974E+02   342.253    29.776  1985.132   167.771   239.987    11.776   190.173     0.000   191.420     8.083     0.102     0.013     0.000     0.082     5.041     0.673     0.009     0.000 .00000E+00 0.000E+00 0.000E+00 0.000E+00 0.000E+00 0.000E+00
BIGSUB   62        0 1989.30078E+02   342.252    29.781  1983.943   167.233   237.442     5.546   193.258     0.000   194.670     9.173     0.118     0.014     0.000     0.080     5.856     1.151     0.014     0.000 .00000E+00 0.000E+00 0.000E+00 0.000E+00 0.000E+00 0.000E+00
BIGSUB   63        0 1989.71547E+02   341.470    29.783  1978.629   167.412   238.354    12.029   189.057     0.000   191.297    11.750     0.133     0.016     0.000     0.072     6.564     1.652     0.020     0.000 .00000E+00 0.000E+00 0.000E+00 0.000E+00 0.000E+00 0.000E+00
BIGSUB   64        0 1989.92785E+02   342.301    29.776  1985.400   168.236   240.250     5.663   192.982     0.000   194.048     9.167     0.104     0.013     0.000     0.083     5.153     0.799     0.010     0.000 .00000E+00 0.000E+00 0.000E+00 0.000E+00 0.000E+00 0.000E+00
BIGSUB   65        0 1989.97995E+02   342.462    29.846  1877.750   166.972   233.694    41.174   174.091     0.000   177.710     9.486     0.110     0.013     0.000     0.067     5.376     1.555     0.020     0.000 .00000E+00 0.000E+00 0.000E+00 0.000E+00 0.000E+00 0.000E+00
BIGSUB   66        0 1989.59743E+02   342.462    29.857  1879.599   164.714   238.078    12.973   190.752     0.000   192.230     7.731     0.091     0.011     0.000     0.082     4.465     0.841     0.010     0.000 .00000E+00 0.000E+00 0.000E+00 0.000E+00 0.000E+00 0.000E+00
BIGSUB   67        0 1989.70663E+02   342.462    29.857  1879.641   165.905   240.800    11.680   190.387     0.000   191.752     8.397     0.112     0.014     0.000     0.076     5.490     0.790     0.008     0.000 .00000E+00 0.000E+00 0.000E+00 0.000E+00 0.000E+00 0.000E+00
BIGSUB   68        0 1989.66453E+02   342.462    29.803  1959.837   167.885   239.699    27.747   178.668     0.000   182.190    12.206     0.123     0.015     0.000     0.064     6.072     2.125     0.028     0.000 .00000E+00 0.000E+00 0.000E+00 0.000E+00 0.000E+00 0.000E+00
BIGSUB   69        0 1989.11060E+03   342.462    29.818  1977.436   168.959   244.104    20.888   183.366     0.000   185.290     9.325     0.113     0.014     0.000     0.073     5.544     0.882     0.011     0.000 .00000E+00 0.000E+00 0.000E+00 0.000E+00 0.000E+00 0.000E+00
BIGSUB   70        0 1989.13450E+03   342.440    29.816  1977.787   171.118   240.252    48.954   169.891     0.000   173.469     6.944     0.104     0.013     0.000     0.074     5.049     1.129     0.017     0.000 .00000E+00 0.000E+00 0.000E+00 0.000E+00 0.000E+00 0.000E+00
BIGSUB   71        0 1989.24406E+03   341.884    29.803  1956.874   168.499   237.850    44.948   172.734     0.000   176.333    10.048     0.118     0.014     0.000     0.065     5.787     1.347     0.017     0.000 .00000E+00 0.000E+00 0.000E+00 0.000E+00 0.000E+00 0.000E+00
BIGSUB    1        0 1990.10173E+03   262.973     0.000  2386.104   218.418   218.952     7.761    43.822     0.000    45.417     3.491     0.162     0.025     0.052     0.022     2.143     1.139     0.007     0.000 .00000E+00 0.000E+00 0.000E+00 0.000E+00 0.000E+00 0.000E+00
BIGSUB    2        0 1990.15911E+03   262.434     0.000  2381.882   210.366   235.421     5.096    52.462     0.000    53.378     4.093     0.170     0.023     0.051     0.025     2.497     0.592     0.004     0.000 .00000E+00 0.000E+00 0.000E+00 0.000E+00 0.000E+00 0.000E+00
BIGSUB    3        0 1990.89835E+02   262.694     0.000  2384.076   215.370   251.510     8.661    43.497     0.000    44.862     5.262     0.053     0.006     0.000     0.018     2.553     0.842     0.005     0.000 .00000E+00 0.000E+00 0.000E+00 0.000E+00 0.000E+00 0.000E+00
BIGSUB    4        0 1990.15209E+02   263.201     0.000  2392.317   214.393   256.062    10.606    43.422     0.000    44.257     1.399     0.028     0.003     0.000     0.022     1.305     0.213     0.003     0.000 .00000E+00 0.000E+00 0.000E+00 0.000E+00 0.000E+00 0.000E+00
BIGSUB    5        0 1990.65675E+02   263.201     0.000  2391.690   195.996   205.418     1.571    72.470     0.000    73.177     6.292     0.056     0.007     0.000     0.027     2.812     0.608     0.001     0.000 .00000E+00 0.000E+00 0.000E+00 0.000E+00 0.000E+00 0.000E+00
BIGSUB    6        0 1990.16063E+03   263.157     0.000  2390.140   219.996   231.810     4.885    45.769     0.000    46.844     3.540     0.043     0.005     0.000     0.020     1.970     0.765     0.004     0.000 .00000E+00 0.000E+00 0.000E+00 0.000E+00 0.000E+00 0.000E+00
BIGSUB    7        0 1990.36382E+01   263.201     0.000  2394.537   212.788   254.677     9.862    45.418     0.000    46.495     1.930     0.032     0.004     0.000     0.024     1.420     0.494     0.003     0.000 .00000E+00 0.000E+00 0.000E+00 0.000E+00 0.000E+00 0.000E+00
BIGSUB    8        0 1990.83411E+02   263.201     0.000  2343.769   196.187   211.417     1.968    71.992     0.000    72.570     5.516     0.054     0.007     0.000     0.028     2.725     0.462     0.001     0.000 .00000E+00 0.000E+00 0.000E+00 0.000E+00 0.000E+00 0.000E+00
BIGSUB    9        0 1990.13927E+01   263.201     0.000  2395.013   216.516   232.273     7.418    45.657     0.000    47.263     0.991     0.017     0.002     0.000     0.026     0.732     1.164     0.006     0.000 .00000E+00 0.000E+00 0.000E+00 0.000E+00 0.000E+00 0.000E+00
BIGSUB   10        0 1990.81416E+02   262.500     0.000  2334.959   190.502   196.029     0.000    79.123     0.000    80.112     9.837     0.070     0.009     0.000     0.025     3.619     0.989     0.000     0.000 .00000E+00 0.000E+00 0.000E+00 0.000E+00 0.000E+00 0.000E+00
BIGSUB   11        0 1990.12618E+03   262.548     0.000  2386.321   227.828   218.286     7.747    33.219     0.000    37.268     2.403     0.034     0.004     0.000     0.016     1.521     3.587     0.020     0.000 .00000E+00 0.000E+00 0.000E+00 0.000E+00 0.000E+00 0.000E+00
BIGSUB   12        0 1990.10306E+03   263.201     0.000  2393.125   209.666   205.910     2.151    59.609     0.000    61.645     5.796     0.058     0.007     0.000     0.022     2.952     1.905     0.005     0.000 .00000E+00 0.000E+00 0.000E+00 0.000E+00 0.000E+00 0.000E+00
BIGSUB   13        0 1990.10485E+02   263.201     0.000  2397.857   264.026   149.394     3.380    10.518     0.000    15.581     1.142     0.015     0.002     0.000     0.005     0.642     4.842     0.027     0.000 .00000E+00 0.000E+00 0.000E+00 0.000E+00 0.000E+00 0.000E+00
BIGSUB   14        0 1990.63210E+02   261.802     0.000  2382.106   230.709   186.600     4.875    26.305     0.000    37.028     3.193     0.039     0.005     0.000     0.011     1.602    10.413     0.053     0.000 .00000E+00 0.000E+00 0.000E+00 0.000E+00 0.000E+00 0.000E+00
BIGSUB   15        0 1990.25762E+01   263.201     0.000  2404.251   238.314    60.317     0.000     0.930     0.000    38.574     0.065     0.007     0.001     0.000     0.001     0.046    37.633     0.190     0.000 .00000E+00 0.000E+00 0.000E+00 0.000E+00 0.000E+00 0.000E+00
BIGSUB   16        0 1990.18897E+03   262.798     0.000  2337.087   194.618   205.724     0.000    75.673     0.000    76.377     8.121     0.068     0.008     0.000     0.026     3.566     0.705     0.001     0.000 .00000E+00 0.000E+00 0.000E+00 0.000E+00 0.000E+00 0.000E+00
BIGSUB   17        0 1990.86112E+02   263.201     0.000  2256.050   211.588   229.005     9.386    30.332     0.000    35.907     2.087     0.032     0.004     0.000     0.015     1.385     5.034     0.035     0.000 .00000E+00 0.000E+00 0.000E+00 0.000E+00 0.000E+00 0.000E+00
BIGSUB   18        0 1990.12506E+03   263.099     0.000  2138.885   177.331   225.441     0.000    92.866     0.000    93.540     4.727     0.063     0.008     0.000     0.041     3.242     0.674     0.000     0.000 .00000E+00 0.000E+00 0.000E+00 0.000E+00 0.000E+00 0.000E+00
BIGSUB   19        0 1990.68335E+02   263.201     0.000  2255.025   196.781   223.661     2.736    59.327     0.000    60.883     4.072     0.046     0.006     0.000     0.025     2.327     1.386     0.006     0.000 .00000E+00 0.000E+00 0.000E+00 0.000E+00 0.000E+00 0.000E+00
BIGSUB   20        0 1990.11691E+03   263.201     0.000  2141.421   184.299   217.410     0.000    86.408     0.000    86.975     5.373     0.062     0.008     0.000     0.035     3.175     0.567     0.000     0.000 .00000E+00 0.000E+00 0.000E+00 0.000E+00 0.000E+00 0.000E+00
BIGSUB   21        0 1990.99067E+02   304.332     0.000  2066.642   177.860   237.152     0.000   132.659     0.000   133.021     7.248     0.081     0.010     0.000     0.044     4.183     0.362     0.001     0.000 .00000E+00 0.000E+00 0.000E+00 0.000E+00 0.000E+00 0.000E+00
BIGSUB   22        0 1990.15130E+01   298.248     0.000  2110.885   180.587   189.312     0.000    99.111     0.000   124.768    28.767     0.096     0.012     0.000     0.023     5.233    25.640     0.001     0.000 .00000E+00 0.000E+00 0.000E+00 0.000E+00 0.000E+00 0.000E+00
BIGSUB   23        0 1990.28187E+03   262.661     0.000  2326.417   203.027   156.524     4.578    23.768     0.000    47.124     6.085     0.036     0.004     0.000     0.008     1.626    23.085     0.129     0.000 .00000E+00 0.000E+00 0.000E+00 0.000E+00 0.000E+00 0.000E+00
BIGSUB   24        0 1990.68344E+01   304.332     0.000  2079.945   206.309    78.528     4.480    22.791     0.000   102.255    12.587     0.065     0.009     0.001     0.004     2.066    79.184     0.270     0.000 .00000E+00 0.000E+00 0.000E+00 0.000E+00 0.000E+00 0.000E+00
BIGSUB   25        0 1990.15704E+03   303.828     0.000  2140.149   194.727   121.469     6.574    48.817     0.000   109.352    28.185     0.075     0.010     0.000     0.009     3.213    60.163     0.154     0.000 .00000E+00 0.000E+00 0.000E+00 0.000E+00 0.000E+00 0.000E+00
BIGSUB   26        0 1990.16121E+02   304.332     0.000  2068.144   194.328   152.900    17.774    52.295     0.000    98.929    19.083     0.080     0.010     0.000     0.015     3.601    45.680     0.094     0.000 .00000E+00 0.000E+00 0.000E+00 0.000E+00 0.000E+00 0.000E+00
BIGSUB   27        0 1990.74006E+02   304.332     0.000  2074.081   194.780   177.297     8.092    74.758     0.000   108.081    26.335     0.101     0.013     0.000     0.016     4.521    32.869     0.040     0.000 .00000E+00 0.000E+00 0.000E+00 0.000E+00 0.000E+00 0.000E+00
BIGSUB   28        0 1990.85599E+02   304.332     0.000  2067.948   178.215   222.297     0.704   124.395     0.000   131.393    20.034     0.101     0.012     0.000     0.028     5.273     6.950     0.003     0.000 .00000E+00 0.000E+00 0.000E+00 0.000E+00 0.000E+00 0.000E+00
BIGSUB   29        0 1990.11585E+03   304.232     0.000  1963.722   174.939   235.790     2.871   130.574     0.000   132.189    12.478     0.095     0.012     0.000     0.040     4.855     1.428     0.004     0.000 .00000E+00 0.000E+00 0.000E+00 0.000E+00 0.000E+00 0.000E+00
BIGSUB   30        0 1990.38028E+02   304.332     0.000  1965.730   174.843   227.119     5.905   128.276     0.000   129.326     9.630     0.086     0.011     0.000     0.040     4.218     0.707     0.001     0.000 .00000E+00 0.000E+00 0.000E+00 0.000E+00 0.000E+00 0.000E+00
BIGSUB   31        0 1990.16373E+03   304.332     0.000  2067.749   178.131   216.056     1.377   120.442     0.000   130.338    22.487     0.104     0.013     0.000     0.027     5.256     9.803     0.003     0.000 .00000E+00 0.000E+00 0.000E+00 0.000E+00 0.000E+00 0.000E+00
BIGSUB   32        0 1990.11085E+03   303.953     0.000  2120.989   193.537   203.424    53.011    51.780    13.944    79.750     3.324     0.046     0.006     0.000     0.021     2.034    11.251     0.045     0.001 .00000E+00 0.000E+00 0.000E+00 0.000E+00 0.000E+00 0.000E+00
BIGSUB   33        0 1990.76515E+02   304.332     0.000  1965.503   179.642   225.885     8.310   119.512     0.000   121.895    13.253     0.091     0.011     0.000     0.035     4.554     1.896     0.005     0.000 .00000E+00 0.000E+00 0.000E+00 0.000E+00 0.000E+00 0.000E+00
BIGSUB   34        0 1990.69117E+02   303.971     0.000  1961.801   172.355   239.046     0.000   136.504     0.000   137.514    12.280     0.098     0.012     0.000     0.041     5.092     0.976     0.003     0.000 .00000E+00 0.000E+00 0.000E+00 0.000E+00 0.000E+00 0.000E+00
BIGSUB   35        0 1990.13201E+03   304.332     0.000  2068.034   193.213   175.413    10.924    71.973     0.000   106.838    28.550     0.105     0.014     0.001     0.017     4.415    34.267     0.024     0.000 .00000E+00 0.000E+00 0.000E+00 0.000E+00 0.000E+00 0.000E+00
BIGSUB   36        0 1990.16060E+03   304.332     0.000  1965.160   170.574   236.864     0.000   139.054     0.000   139.672    10.475     0.091     0.011     0.000     0.045     4.679     0.594     0.002     0.000 .00000E+00 0.000E+00 0.000E+00 0.000E+00 0.000E+00 0.000E+00
BIGSUB   37        0 1990.15721E+03   304.332     0.000  2066.097   180.591   231.361     3.458   121.610     0.000   126.101    15.431     0.092     0.011     0.000     0.032     4.683     4.280     0.005     0.000 .00000E+00 0.000E+00 0.000E+00 0.000E+00 0.000E+00 0.000E+00
BIGSUB   38        0 1990.12493E+00   304.332     0.000  2067.525   183.255   233.013     8.656   116.900     0.000   117.915     2.716     0.037     0.005     0.000     0.057     1.791     0.501     0.001     0.000 .00000E+00 0.000E+00 0.000E+00 0.000E+00 0.000E+00 0.000E+00
BIGSUB   39        0 1990.73199E+02   304.332     0.000  1921.811   169.645   232.139     2.997   135.455     0.000   137.882    17.927     0.101     0.012     0.000     0.033     5.019     2.251     0.003     0.000 .00000E+00 0.000E+00 0.000E+00 0.000E+00 0.000E+00 0.000E+00
BIGSUB   40        0 1990.11658E+03   304.094     0.000  2065.029   185.801   228.788    18.217    98.115     0.000   106.362    17.671     0.087     0.011     0.000     0.025     4.363     7.268     0.004     0.000 .00000E+00 0.000E+00 0.000E+00 0.000E+00 0.000E+00 0.000E+00
BIGSUB   41        0 1990.17248E+02   304.332     0.000  1923.919   173.301   239.638     8.254   127.643     0.853   130.402    15.181     0.094     0.011     0.000     0.033     4.775     1.466     0.002     0.000 .00000E+00 0.000E+00 0.000E+00 0.000E+00 0.000E+00 0.000E+00
BIGSUB   42        0 1990.94303E+02   304.332     0.000  1921.861   170.883   235.461     1.466   136.254     0.000   138.402    21.804     0.112     0.014     0.000     0.025     5.709     2.054     0.002     0.000 .00000E+00 0.000E+00 0.000E+00 0.000E+00 0.000E+00 0.000E+00
BIGSUB   43        0 1990.14154E+03   304.332     0.000  1820.780   164.818   232.628     0.000   143.205     0.000   145.513    16.271     0.100     0.012     0.000     0.040     4.993     2.293     0.000     0.000 .00000E+00 0.000E+00 0.000E+00 0.000E+00 0.000E+00 0.000E+00
BIGSUB   44        0 1990.20450E+03   303.859     0.000  1917.794   202.455   203.096    18.478    85.870     0.545    94.592    11.588     0.162     0.024     0.003     0.025     3.713     7.162     0.027     0.000 .00000E+00 0.000E+00 0.000E+00 0.000E+00 0.000E+00 0.000E+00
BIGSUB   45        0 1990.73063E+02   304.332     0.000  1821.857   164.404   233.956     0.000   144.740     0.000   145.882    13.439     0.096     0.012     0.000     0.043     4.758     1.124     0.000     0.000 .00000E+00 0.000E+00 0.000E+00 0.000E+00 0.000E+00 0.000E+00
BIGSUB   46        0 1990.12644E+01   304.332     0.000  1822.405   166.940   233.744     5.404   137.235     0.703   138.607     4.301     0.052     0.006     0.000     0.061     2.553     0.364     0.001     0.000 .00000E+00 0.000E+00 0.000E+00 0.000E+00 0.000E+00 0.000E+00
BIGSUB   47        0 1990.87448E+02   304.332     0.000  1822.102   169.146   240.823     0.000   140.331     0.000   140.670     6.193     0.070     0.009     0.000     0.054     3.668     0.295     0.002     0.000 .00000E+00 0.000E+00 0.000E+00 0.000E+00 0.000E+00 0.000E+00
BIGSUB   48        0 1990.12017E+03   303.746     0.000  1818.209   169.341   240.948     0.000   139.626     0.000   140.015     6.143     0.074     0.009     0.000     0.053     3.830     0.336     0.003     0.000 .00000E+00 0.000E+00 0.000E+00 0.000E+00 0.000E+00 0.000E+00
BIGSUB   49        0 1990.15298E+03   304.332     0.000  1922.678   175.268   232.721     6.386   122.029     0.000   128.361    17.423     0.099     0.012     0.000     0.031     4.924     5.956     0.006     0.000 .00000E+00 0.000E+00 0.000E+00 0.000E+00 0.000E+00 0.000E+00
BIGSUB   50        0 1990.76393E+02   303.602     0.000  1815.604   178.248   237.231    13.703   115.435     0.000   117.567     9.671     0.084     0.010     0.000     0.037     4.126     1.351     0.004     0.000 .00000E+00 0.000E+00 0.000E+00 0.000E+00 0.000E+00 0.000E+00
BIGSUB   51        0 1990.90351E+02   304.332     0.000  1822.458   166.864   238.617     0.000   142.969     0.000   143.355     7.035     0.074     0.009     0.000     0.054     3.715     0.360     0.001     0.000 .00000E+00 0.000E+00 0.000E+00 0.000E+00 0.000E+00 0.000E+00
BIGSUB   52        0 1990.35425E+02   304.332     0.000  1820.403   166.347   236.087     0.000   143.290     0.000   143.673     6.098     0.072     0.009     0.000     0.058     3.623     0.352     0.001     0.000 .00000E+00 0.000E+00 0.000E+00 0.000E+00 0.000E+00 0.000E+00
BIGSUB   53        0 1990.68855E+02   304.332     0.000  1822.287   164.902   234.616     0.000   145.036     0.000   145.540     8.371     0.088     0.011     0.000     0.046     4.356     0.490     0.000     0.000 .00000E+00 0.000E+00 0.000E+00 0.000E+00 0.000E+00 0.000E+00
BIGSUB   54        0 1990.80750E+02   303.515     0.000  1914.175   181.617   234.715    27.746    98.057     0.562   101.706     8.898     0.079     0.010     0.000     0.031     3.763     1.608     0.003     0.000 .00000E+00 0.000E+00 0.000E+00 0.000E+00 0.000E+00 0.000E+00
BIGSUB   55        0 1990.19802E+03   304.332     0.000  1822.235   165.471   238.282     0.000   144.498     0.000   144.930     8.238     0.083     0.010     0.000     0.049     4.106     0.415     0.000     0.000 .00000E+00 0.000E+00 0.000E+00 0.000E+00 0.000E+00 0.000E+00
BIGSUB   56        0 1990.80623E+02   304.126     0.000  1819.083   169.520   235.590     4.461   135.098     0.000   136.226     9.346     0.084     0.010     0.000     0.046     4.189     0.867     0.002     0.000 .00000E+00 0.000E+00 0.000E+00 0.000E+00 0.000E+00 0.000E+00
BIGSUB   57        0 1990.12089E+03   304.332     0.000  1923.164   171.710   235.051     5.276   132.475     0.000   133.385     8.947     0.081     0.010     0.000     0.043     3.988     0.604     0.001     0.000 .00000E+00 0.000E+00 0.000E+00 0.000E+00 0.000E+00 0.000E+00
BIGSUB   58        0 1990.41754E+01   304.332     0.000  1923.177   183.112   221.849     9.167   117.664     0.000   119.276     5.939     0.061     0.008     0.001     0.046     2.747     1.078     0.003     0.000 .00000E+00 0.000E+00 0.000E+00 0.000E+00 0.000E+00 0.000E+00
BIGSUB   59        0 1990.87078E+02   304.298     0.000  1819.420   171.706   235.307     6.324   130.699     0.000   132.145     9.962     0.086     0.011     0.000     0.043     4.277     1.076     0.003     0.000 .00000E+00 0.000E+00 0.000E+00 0.000E+00 0.000E+00 0.000E+00
BIGSUB   60        0 1990.74524E+02   304.332     0.000  1921.838   167.786   234.649     0.000   142.234     0.000   142.987    10.345     0.084     0.010     0.000     0.047     4.213     0.743     0.000     0.000 .00000E+00 0.000E+00 0.000E+00 0.000E+00 0.000E+00 0.000E+00
BIGSUB   61        0 1990.54974E+02   304.147     0.000  1922.199   169.184   234.032     1.312   139.201     0.000   139.709     6.676     0.068     0.008     0.000     0.054     3.371     0.415     0.001     0.000 .00000E+00 0.000E+00 0.000E+00 0.000E+00 0.000E+00 0.000E+00
BIGSUB   62        0 1990.30078E+02   304.146     0.000  1921.165   167.102   231.229     0.000   142.566     0.000   143.297     7.690     0.080     0.010     0.000     0.052     3.969     0.716     0.001     0.000 .00000E+00 0.000E+00 0.000E+00 0.000E+00 0.000E+00 0.000E+00
BIGSUB   63        0 1990.71547E+02   303.451     0.000  1916.082   168.996   232.379     1.466   138.277     0.000   139.408     9.757     0.087     0.011     0.000     0.045     4.347     1.030     0.001     0.000 .00000E+00 0.000E+00 0.000E+00 0.000E+00 0.000E+00 0.000E+00
BIGSUB   64        0 1990.92785E+02   304.190     0.000  1922.442   168.130   233.960     0.000   141.859     0.000   142.363     7.660     0.068     0.008     0.000     0.055     3.416     0.488     0.001     0.000 .00000E+00 0.000E+00 0.000E+00 0.000E+00 0.000E+00 0.000E+00
BIGSUB   65        0 1990.97995E+02   304.332     0.000  1820.682   174.719   228.605     9.471   124.194     0.000   125.714     8.790     0.080     0.010     0.000     0.042     3.958     0.972     0.003     0.000 .00000E+00 0.000E+00 0.000E+00 0.000E+00 0.000E+00 0.000E+00
BIGSUB   66        0 1990.59743E+02   304.332     0.000  1822.471   166.387   232.254     2.034   141.126     0.000   141.786     7.087     0.066     0.008     0.000     0.056     3.252     0.530     0.001     0.000 .00000E+00 0.000E+00 0.000E+00 0.000E+00 0.000E+00 0.000E+00
BIGSUB   67        0 1990.70663E+02   304.332     0.000  1822.520   167.318   234.829     1.807   140.606     0.000   141.217     6.874     0.078     0.010     0.000     0.049     3.851     0.495     0.000     0.000 .00000E+00 0.000E+00 0.000E+00 0.000E+00 0.000E+00 0.000E+00
BIGSUB   68        0 1990.66453E+02   304.332     0.000  1898.065   173.016   234.028     6.658   128.933     0.000   130.661    10.484     0.084     0.010     0.000     0.040     4.166     1.346     0.004     0.000 .00000E+00 0.000E+00 0.000E+00 0.000E+00 0.000E+00 0.000E+00
BIGSUB   69        0 1990.11060E+03   304.332     0.000  1915.744   172.722   238.228     3.892   132.979     0.000   133.760     8.186     0.079     0.010     0.000     0.046     3.879     0.545     0.001     0.000 .00000E+00 0.000E+00 0.000E+00 0.000E+00 0.000E+00 0.000E+00
BIGSUB   70        0 1990.13450E+03   304.313     0.000  1916.051   181.628   235.431     9.644   117.121     0.000   118.389     5.232     0.067     0.008     0.000     0.045     3.312     0.690     0.002     0.000 .00000E+00 0.000E+00 0.000E+00 0.000E+00 0.000E+00 0.000E+00
BIGSUB   71        0 1990.24406E+03   303.819     0.000  1895.195   177.229   232.747    10.003   121.002     0.000   122.428     8.220     0.079     0.010     0.000     0.039     3.897     0.843     0.002     0.000 .00000E+00 0.000E+00 0.000E+00 0.000E+00 0.000E+00 0.000E+00
BIGSUB    1        0 1991.10173E+03   489.550     0.000  2314.906   226.134   318.561    40.217   120.368     0.000   122.154     5.694     0.323     0.051     0.095     0.054     4.367     1.214     0.007     0.000 .00000E+00 0.000E+00 0.000E+00 0.000E+00 0.000E+00 0.000E+00
BIGSUB    2        0 1991.15911E+03   488.547     0.000  2310.745   226.183   321.527    35.184   139.202     0.000   140.232     6.537     0.317     0.044     0.094     0.058     4.825     0.620     0.003     0.000 .00000E+00 0.000E+00 0.000E+00 0.000E+00 0.000E+00 0.000E+00
BIGSUB    3        0 1991.89835E+02   489.031     0.000  2312.905   229.909   335.114    49.794   123.248     0.000   124.850     8.413     0.105     0.012     0.000     0.047     5.133     0.917     0.004     0.000 .00000E+00 0.000E+00 0.000E+00 0.000E+00 0.000E+00 0.000E+00
BIGSUB    4        0 1991.15209E+02   489.974     0.000  2320.575   229.161   338.930    52.881   122.317     0.000   123.291     2.545     0.060     0.007     0.000     0.059     2.803     0.192     0.002     0.000 .00000E+00 0.000E+00 0.000E+00 0.000E+00 0.000E+00 0.000E+00
BIGSUB    5        0 1991.65675E+02   489.974     0.000  2320.042   211.308   291.356    10.568   179.227     0.000   180.089     9.627     0.099     0.012     0.000     0.062     5.006     0.729     0.001     0.000 .00000E+00 0.000E+00 0.000E+00 0.000E+00 0.000E+00 0.000E+00
BIGSUB    6        0 1991.16063E+03   489.892     0.000  2318.629   227.277   330.263    35.813   125.291     0.000   126.545     5.810     0.100     0.013     0.000     0.052     3.997     0.828     0.004     0.000 .00000E+00 0.000E+00 0.000E+00 0.000E+00 0.000E+00 0.000E+00
BIGSUB    7        0 1991.36382E+01   489.974     0.000  2322.548   227.665   333.441    54.691   126.142     0.000   127.413     3.154     0.066     0.008     0.000     0.063     2.944     0.521     0.002     0.000 .00000E+00 0.000E+00 0.000E+00 0.000E+00 0.000E+00 0.000E+00
BIGSUB    8        0 1991.83411E+02   489.974     0.000  2270.622   212.048   297.456    10.876   178.093     0.000   178.760     8.705     0.097     0.012     0.000     0.064     4.909     0.517     0.001     0.000 .00000E+00 0.000E+00 0.000E+00 0.000E+00 0.000E+00 0.000E+00
BIGSUB    9        0 1991.13927E+01   489.974     0.000  2322.966   224.257   326.071    43.012   123.736     0.000   125.901     1.648     0.044     0.006     0.000     0.069     1.576     1.597     0.010     0.000 .00000E+00 0.000E+00 0.000E+00 0.000E+00 0.000E+00 0.000E+00
BIGSUB   10        0 1991.81416E+02   488.668     0.000  2262.368   206.454   282.817     0.000   192.653     0.000   193.864    15.240     0.120     0.015     0.000     0.054     6.245     1.211     0.001     0.000 .00000E+00 0.000E+00 0.000E+00 0.000E+00 0.000E+00 0.000E+00
BIGSUB   11        0 1991.12618E+03   488.759     0.000  2314.788   227.618   328.239    45.212    97.581     0.000   103.300     4.216     0.099     0.013     0.000     0.044     3.403     5.135     0.033     0.000 .00000E+00 0.000E+00 0.000E+00 0.000E+00 0.000E+00 0.000E+00
BIGSUB   12        0 1991.10306E+03   489.974     0.000  2321.337   212.752   309.447    15.304   152.427     0.000   154.891     9.594     0.126     0.016     0.000     0.053     5.471     2.299     0.009     0.000 .00000E+00 0.000E+00 0.000E+00 0.000E+00 0.000E+00 0.000E+00
BIGSUB   13        0 1991.10485E+02   489.974     0.000  2325.479   227.341   322.928    33.049    45.403     0.000    51.550     2.459     0.127     0.018     0.000     0.023     2.126     5.874     0.043     0.000 .00000E+00 0.000E+00 0.000E+00 0.000E+00 0.000E+00 0.000E+00
BIGSUB   14        0 1991.63210E+02   487.370     0.000  2310.472   224.503   308.670    37.626    81.737     0.000    98.752     5.569     0.145     0.019     0.000     0.034     3.772    16.610     0.095     0.000 .00000E+00 0.000E+00 0.000E+00 0.000E+00 0.000E+00 0.000E+00
BIGSUB   15        0 1991.25762E+01   489.974     0.000  2331.059   218.265   227.496     9.836    14.172     0.000    77.662     1.323     0.140     0.020     0.000     0.009     1.120    63.469     0.354     0.000 .00000E+00 0.000E+00 0.000E+00 0.000E+00 0.000E+00 0.000E+00
BIGSUB   16        0 1991.18897E+03   489.224     0.000  2264.531   211.005   294.950     0.000   185.359     0.000   186.149    13.241     0.119     0.015     0.000     0.055     6.260     0.790     0.001     0.000 .00000E+00 0.000E+00 0.000E+00 0.000E+00 0.000E+00 0.000E+00
BIGSUB   17        0 1991.86112E+02   489.974     0.000  2189.480   226.692   324.460    55.484    99.844     0.000   109.005     3.987     0.136     0.018     0.000     0.049     3.589     8.444     0.023     0.000 .00000E+00 0.000E+00 0.000E+00 0.000E+00 0.000E+00 0.000E+00
BIGSUB   18        0 1991.12506E+03   489.784     0.000  2075.813   191.876   301.013     0.000   217.229     0.000   218.001     7.786     0.110     0.013     0.000     0.087     5.668     0.772     0.000     0.000 .00000E+00 0.000E+00 0.000E+00 0.000E+00 0.000E+00 0.000E+00
BIGSUB   19        0 1991.68335E+02   489.974     0.000  2188.602   212.084   312.744    25.919   158.387     0.000   160.366     6.749     0.137     0.017     0.000     0.065     4.748     1.700     0.006     0.000 .00000E+00 0.000E+00 0.000E+00 0.000E+00 0.000E+00 0.000E+00
BIGSUB   20        0 1991.11691E+03   489.974     0.000  2078.044   198.968   299.284     0.000   204.714     0.000   205.362     8.541     0.107     0.013     0.000     0.076     5.525     0.648     0.000     0.000 .00000E+00 0.000E+00 0.000E+00 0.000E+00 0.000E+00 0.000E+00
BIGSUB   21        0 1991.99067E+02   639.188     9.494  2053.992   203.519   307.588     0.000   363.584     0.000   363.978    19.810     0.180     0.022     0.000     0.102     9.308     0.394     0.000     0.000 .00000E+00 0.000E+00 0.000E+00 0.000E+00 0.000E+00 0.000E+00
BIGSUB   22        0 1991.15130E+01   626.410     9.485  2097.767   203.082   264.455     0.548   305.654     0.000   347.525    80.048     0.205     0.025     0.000     0.059    11.215    41.865     0.083     0.000 .00000E+00 0.000E+00 0.000E+00 0.000E+00 0.000E+00 0.000E+00
BIGSUB   23        0 1991.28187E+03   488.968     0.000  2257.055   217.934   263.599    33.313    79.200     0.000   120.389    12.146     0.222     0.029     0.000     0.030     4.733    40.818     0.087     0.000 .00000E+00 0.000E+00 0.000E+00 0.000E+00 0.000E+00 0.000E+00
BIGSUB   24        0 1991.68344E+01   639.188     9.489  2066.339   238.204   182.121    17.729    91.651     0.000   274.720    38.965     0.363     0.058     0.004     0.018     5.666   182.334     0.318     0.000 .00000E+00 0.000E+00 0.000E+00 0.000E+00 0.000E+00 0.000E+00
BIGSUB   25        0 1991.15704E+03   638.128     9.488  2127.372   221.335   209.495    22.284   169.097     0.000   302.163    88.560     0.283     0.040     0.002     0.027     7.760   132.323     0.207     0.000 .00000E+00 0.000E+00 0.000E+00 0.000E+00 0.000E+00 0.000E+00
BIGSUB   26        0 1991.16121E+02   639.188     9.493  2055.388   215.253   235.536    51.966   186.746     2.344   288.917    58.898     0.260     0.035     0.001     0.046     9.190    98.171     0.147     0.000 .00000E+00 0.000E+00 0.000E+00 0.000E+00 0.000E+00 0.000E+00
BIGSUB   27        0 1991.74006E+02   639.188     9.491  2060.899   214.208   263.656    26.090   241.622     0.000   309.337    76.330     0.291     0.041     0.003     0.044    10.108    66.832     0.095     0.000 .00000E+00 0.000E+00 0.000E+00 0.000E+00 0.000E+00 0.000E+00
BIGSUB   28        0 1991.85599E+02   639.188     9.493  2055.207   202.022   292.339     4.349   348.444     0.000   361.254    48.631     0.205     0.025     0.000     0.061    10.738    12.681     0.012     0.000 .00000E+00 0.000E+00 0.000E+00 0.000E+00 0.000E+00 0.000E+00
BIGSUB   29        0 1991.11585E+03   638.978     9.497  1950.211   196.955   302.183    12.740   359.674     0.000   362.118    27.541     0.192     0.023     0.000     0.093     9.855     2.063     0.007     0.000 .00000E+00 0.000E+00 0.000E+00 0.000E+00 0.000E+00 0.000E+00
BIGSUB   30        0 1991.38028E+02   639.188     9.497  1952.097   194.325   291.981    24.883   353.032     0.000   354.758    22.414     0.181     0.022     0.000     0.094     8.887     0.979     0.003     0.000 .00000E+00 0.000E+00 0.000E+00 0.000E+00 0.000E+00 0.000E+00
BIGSUB   31        0 1991.16373E+03   639.188     9.494  2055.021   200.651   285.824     8.490   339.884     0.000   358.670    57.202     0.211     0.026     0.000     0.060    10.749    18.534     0.023     0.000 .00000E+00 0.000E+00 0.000E+00 0.000E+00 0.000E+00 0.000E+00
BIGSUB   32        0 1991.11085E+03   638.392     9.495  2109.325   208.494   275.012   139.164   192.033    36.113   258.269    12.479     0.192     0.025     0.001     0.073     7.353    25.705     0.047     0.001 .00000E+00 0.000E+00 0.000E+00 0.000E+00 0.000E+00 0.000E+00
BIGSUB   33        0 1991.76515E+02   639.188     9.497  1951.888   197.079   291.102    36.142   336.359     0.000   340.429    29.472     0.188     0.023     0.000     0.084     9.382     2.988     0.013     0.000 .00000E+00 0.000E+00 0.000E+00 0.000E+00 0.000E+00 0.000E+00
BIGSUB   34        0 1991.69117E+02   638.428     9.497  1948.333   196.798   306.003     0.000   372.849     0.000   373.987    27.267     0.196     0.024     0.000     0.093    10.238     1.137     0.000     0.000 .00000E+00 0.000E+00 0.000E+00 0.000E+00 0.000E+00 0.000E+00
BIGSUB   35        0 1991.13201E+03   639.188     9.493  2055.287   210.967   259.735    33.058   238.281     0.007   308.189    89.660     0.307     0.045     0.003     0.046    10.102    68.825     0.098     0.000 .00000E+00 0.000E+00 0.000E+00 0.000E+00 0.000E+00 0.000E+00
BIGSUB   36        0 1991.16060E+03   639.188     9.497  1951.590   194.862   302.827     0.000   376.646     0.000   377.325    23.117     0.185     0.023     0.000     0.102     9.537     0.678     0.000     0.000 .00000E+00 0.000E+00 0.000E+00 0.000E+00 0.000E+00 0.000E+00
BIGSUB   37        0 1991.15721E+03   639.188     9.494  2053.489   201.721   299.956    17.543   342.187     0.000   350.156    39.350     0.195     0.024     0.000     0.075     9.931     7.449     0.026     0.000 .00000E+00 0.000E+00 0.000E+00 0.000E+00 0.000E+00 0.000E+00
BIGSUB   38        0 1991.12493E+00   639.188     9.493  2054.815   200.239   299.065    40.118   331.033     0.000   332.953     6.660     0.094     0.011     0.000     0.151     4.521     0.727     0.003     0.000 .00000E+00 0.000E+00 0.000E+00 0.000E+00 0.000E+00 0.000E+00
BIGSUB   39        0 1991.73199E+02   639.188     9.500  1911.102   189.427   297.471    12.570   366.906     0.000   370.705    40.175     0.201     0.025     0.000     0.073    10.029     3.428     0.007     0.000 .00000E+00 0.000E+00 0.000E+00 0.000E+00 0.000E+00 0.000E+00
BIGSUB   40        0 1991.11658E+03   638.687     9.494  2052.391   203.491   297.996    55.693   295.631     0.038   310.347    44.743     0.199     0.024     0.000     0.066     9.971    12.958     0.015     0.000 .00000E+00 0.000E+00 0.000E+00 0.000E+00 0.000E+00 0.000E+00
BIGSUB   41        0 1991.17248E+02   639.188     9.500  1913.017   193.681   306.918    22.170   352.821     5.634   361.006    34.198     0.194     0.024     0.000     0.077     9.847     1.863     0.000     0.000 .00000E+00 0.000E+00 0.000E+00 0.000E+00 0.000E+00 0.000E+00
BIGSUB   42        0 1991.94303E+02   639.188     9.500  1911.154   191.941   301.888     6.889   369.381     0.000   372.386    52.246     0.212     0.026     0.000     0.053    10.880     2.804     0.004     0.000 .00000E+00 0.000E+00 0.000E+00 0.000E+00 0.000E+00 0.000E+00
BIGSUB   43        0 1991.14154E+03   639.188     9.500  1810.456   186.854   297.838     0.000   382.143     0.000   385.668    33.463     0.185     0.023     0.000     0.090     9.295     3.525     0.000     0.000 .00000E+00 0.000E+00 0.000E+00 0.000E+00 0.000E+00 0.000E+00
BIGSUB   44        0 1991.20450E+03   638.193     9.500  1907.202   214.378   300.555    49.800   261.842     6.556   282.794    28.790     0.587     0.100     0.009     0.068     9.285    12.723     0.026     0.001 .00000E+00 0.000E+00 0.000E+00 0.000E+00 0.000E+00 0.000E+00
BIGSUB   45        0 1991.73063E+02   639.188     9.500  1811.429   186.477   298.983     0.000   384.918     0.000   386.467    27.710     0.182     0.022     0.000     0.097     9.062     1.549     0.000     0.000 .00000E+00 0.000E+00 0.000E+00 0.000E+00 0.000E+00 0.000E+00
BIGSUB   46        0 1991.12644E+01   639.188     9.500  1811.903   188.263   298.793    14.180   370.107     3.644   374.643     9.004     0.111     0.014     0.000     0.152     5.469     0.451     0.000     0.000 .00000E+00 0.000E+00 0.000E+00 0.000E+00 0.000E+00 0.000E+00
BIGSUB   47        0 1991.87448E+02   639.188     9.500  1811.627   192.332   307.783     0.006   378.338     0.000   378.638    14.377     0.146     0.018     0.000     0.130     7.629     0.299     0.001     0.000 .00000E+00 0.000E+00 0.000E+00 0.000E+00 0.000E+00 0.000E+00
BIGSUB   48        0 1991.12017E+03   637.957     9.500  1807.796   192.560   308.268     0.007   377.237     0.000   377.580    14.805     0.154     0.019     0.000     0.127     8.004     0.341     0.000     0.000 .00000E+00 0.000E+00 0.000E+00 0.000E+00 0.000E+00 0.000E+00
BIGSUB   49        0 1991.15298E+03   639.188     9.500  1911.897   192.261   299.078    26.688   341.489     0.000   352.629    43.516     0.203     0.025     0.000     0.072    10.100    10.352     0.031     0.000 .00000E+00 0.000E+00 0.000E+00 0.000E+00 0.000E+00 0.000E+00
BIGSUB   50        0 1991.76393E+02   637.653     9.500  1805.957   192.224   303.116    50.237   326.989     0.000   330.558    22.058     0.173     0.021     0.000     0.090     8.492     2.056     0.009     0.000 .00000E+00 0.000E+00 0.000E+00 0.000E+00 0.000E+00 0.000E+00
BIGSUB   51        0 1991.90351E+02   639.188     9.500  1811.960   189.446   304.605     0.001   382.187     0.000   382.607    15.583     0.151     0.018     0.000     0.128     7.582     0.420     0.000     0.000 .00000E+00 0.000E+00 0.000E+00 0.000E+00 0.000E+00 0.000E+00
BIGSUB   52        0 1991.35425E+02   639.188     9.500  1810.681   189.197   301.620     0.001   383.030     0.000   383.427    12.574     0.146     0.018     0.000     0.138     7.367     0.396     0.000     0.000 .00000E+00 0.000E+00 0.000E+00 0.000E+00 0.000E+00 0.000E+00
BIGSUB   53        0 1991.68855E+02   639.188     9.500  1811.824   187.057   299.720     0.000   384.934     0.000   385.541    20.571     0.177     0.022     0.000     0.104     8.748     0.606     0.000     0.000 .00000E+00 0.000E+00 0.000E+00 0.000E+00 0.000E+00 0.000E+00
BIGSUB   54        0 1991.80750E+02   637.471     9.500  1903.736   195.983   300.831    79.336   293.524    14.111   312.422    22.477     0.191     0.023     0.000     0.081     9.155     2.353     0.004     0.002 .00000E+00 0.000E+00 0.000E+00 0.000E+00 0.000E+00 0.000E+00
BIGSUB   55        0 1991.19802E+03   639.188     9.500  1811.785   187.703   303.735     0.000   384.158     0.000   384.661    19.300     0.166     0.020     0.000     0.112     8.251     0.503     0.000     0.000 .00000E+00 0.000E+00 0.000E+00 0.000E+00 0.000E+00 0.000E+00
BIGSUB   56        0 1991.80623E+02   638.756     9.500  1809.395   189.006   300.991    16.411   365.768     0.000   367.523    19.885     0.168     0.021     0.000     0.107     8.364     1.260     0.004     0.000 .00000E+00 0.000E+00 0.000E+00 0.000E+00 0.000E+00 0.000E+00
BIGSUB   57        0 1991.12089E+03   639.188     9.500  1912.350   190.476   300.112    20.943   360.792     0.000   362.229    21.455     0.176     0.022     0.000     0.100     8.708     0.817     0.002     0.000 .00000E+00 0.000E+00 0.000E+00 0.000E+00 0.000E+00 0.000E+00
BIGSUB   58        0 1991.41754E+01   639.188     9.500  1912.367   199.166   299.053    32.056   327.950     1.653   332.332    13.451     0.152     0.020     0.004     0.119     6.196     1.679     0.006     0.000 .00000E+00 0.000E+00 0.000E+00 0.000E+00 0.000E+00 0.000E+00
BIGSUB   59        0 1991.87078E+02   639.116     9.500  1809.847   190.041   301.088    23.317   357.121     0.000   359.425    21.884     0.171     0.021     0.000     0.099     8.539     1.602     0.006     0.000 .00000E+00 0.000E+00 0.000E+00 0.000E+00 0.000E+00 0.000E+00
BIGSUB   60        0 1991.74524E+02   639.188     9.500  1911.144   190.121   300.726     0.000   380.741     0.000   381.668    24.205     0.174     0.021     0.000     0.108     8.781     0.927     0.000     0.000 .00000E+00 0.000E+00 0.000E+00 0.000E+00 0.000E+00 0.000E+00
BIGSUB   61        0 1991.54974E+02   638.798     9.500  1911.386   190.907   299.767     5.904   374.868     0.000   375.550    15.539     0.148     0.018     0.000     0.130     7.364     0.506     0.000     0.000 .00000E+00 0.000E+00 0.000E+00 0.000E+00 0.000E+00 0.000E+00
BIGSUB   62        0 1991.30078E+02   638.797     9.500  1910.442   189.718   296.784     0.000   381.745     0.000   382.655    17.448     0.172     0.021     0.000     0.121     8.618     0.910     0.000     0.000 .00000E+00 0.000E+00 0.000E+00 0.000E+00 0.000E+00 0.000E+00
BIGSUB   63        0 1991.71547E+02   637.338     9.500  1905.441   190.369   298.058     6.638   373.326     0.000   374.942    22.313     0.186     0.023     0.000     0.104     9.295     1.419     0.002     0.000 .00000E+00 0.000E+00 0.000E+00 0.000E+00 0.000E+00 0.000E+00
BIGSUB   64        0 1991.92785E+02   638.889     9.500  1911.625   190.712   300.287     0.000   380.206     0.000   380.815    17.443     0.146     0.018     0.000     0.132     7.318     0.608     0.000     0.000 .00000E+00 0.000E+00 0.000E+00 0.000E+00 0.000E+00 0.000E+00
BIGSUB   65        0 1991.97995E+02   639.188     9.500  1810.959   190.811   293.961    36.423   343.913     0.000   346.541    19.156     0.163     0.020     0.000     0.101     8.059     1.531     0.006     0.000 .00000E+00 0.000E+00 0.000E+00 0.000E+00 0.000E+00 0.000E+00
BIGSUB   66        0 1991.59743E+02   639.188     9.500  1812.003   187.389   297.098     7.659   377.259     0.000   378.246    15.041     0.134     0.016     0.000     0.134     6.625     0.756     0.002     0.000 .00000E+00 0.000E+00 0.000E+00 0.000E+00 0.000E+00 0.000E+00
BIGSUB   67        0 1991.70663E+02   639.188     9.500  1812.053   188.374   300.113     7.224   376.043     0.000   376.890    17.096     0.161     0.020     0.000     0.115     7.940     0.631     0.001     0.000 .00000E+00 0.000E+00 0.000E+00 0.000E+00 0.000E+00 0.000E+00
BIGSUB   68        0 1991.66453E+02   639.188     9.500  1890.944   190.658   299.888    25.881   353.309     0.000   356.142    24.535     0.176     0.021     0.000     0.095     8.716     2.058     0.008     0.000 .00000E+00 0.000E+00 0.000E+00 0.000E+00 0.000E+00 0.000E+00
BIGSUB   69        0 1991.11060E+03   639.188     9.500  1909.641   191.940   304.726    16.972   361.920     0.000   363.138    19.433     0.168     0.021     0.000     0.110     8.310     0.718     0.002     0.000 .00000E+00 0.000E+00 0.000E+00 0.000E+00 0.000E+00 0.000E+00
BIGSUB   70        0 1991.13450E+03   639.147     9.500  1909.913   197.093   302.443    42.061   330.611     0.000   332.815    14.441     0.156     0.019     0.000     0.114     7.676     0.965     0.005     0.000 .00000E+00 0.000E+00 0.000E+00 0.000E+00 0.000E+00 0.000E+00
BIGSUB   71        0 1991.24406E+03   638.110     9.500  1888.065   192.951   299.305    38.891   338.036     0.000   340.426    20.608     0.171     0.021     0.000     0.096     8.480     1.224     0.005     0.000 .00000E+00 0.000E+00 0.000E+00 0.000E+00 0.000E+00 0.000E+00
BIGSUB    1        0 1992.10173E+03   566.742     8.600  2166.512   213.840   313.658   143.583   211.850     0.000   223.138    24.198     0.670     0.101     0.104     0.081    11.481     3.538     0.017     0.000 .00000E+00 0.000E+00 0.000E+00 0.000E+00 0.000E+00 0.000E+00
BIGSUB    2        0 1992.15911E+03   565.580     8.600  2162.572   214.514   317.128   131.185   224.516     0.000   233.565    21.710     0.444     0.061     0.103     0.079    10.203     1.779     0.013     0.000 .00000E+00 0.000E+00 0.000E+00 0.000E+00 0.000E+00 0.000E+00
[...]
BIGSUB   71        0 2020.24406E+03   403.627     0.000  1981.410   228.733   245.893    19.938   147.723     0.000   149.771     8.477     0.038     0.005     0.000     0.026     1.884     1.105     0.000     0.000 .00000E+00 0.000E+00 0.000E+00 0.000E+00 0.000E+00 0.000E+00
BIGSUB    1        0 33.0.10173E+03   309.777     9.443  2261.551   197.958   260.168    37.245    72.882     0.285    76.426     6.384     0.200     0.031     0.059     0.025     2.558     1.403     0.003     0.000 .00000E+00 0.000E+00 0.000E+00 0.000E+00 0.000E+00 0.000E+00
BIGSUB    2        0 33.0.15911E+03   309.143     9.443  2257.455   197.546   262.398    30.234    80.726     0.000    82.969     6.196     0.187     0.026     0.059     0.026     2.575     0.737     0.002     0.000 .00000E+00 0.000E+00 0.000E+00 0.000E+00 0.000E+00 0.000E+00
BIGSUB    3        0 33.0.89835E+02   309.449     9.443  2259.587   201.960   258.696    40.604    66.915     0.000    70.092     8.003     0.053     0.006     0.000     0.018     2.662     1.154     0.004     0.000 .00000E+00 0.000E+00 0.000E+00 0.000E+00 0.000E+00 0.000E+00
BIGSUB    4        0 33.0.15209E+02   310.046     9.442  2266.941   201.119   263.314    42.718    67.109     0.000    69.475     2.205     0.034     0.004     0.000     0.026     1.665     0.237     0.001     0.000 .00000E+00 0.000E+00 0.000E+00 0.000E+00 0.000E+00 0.000E+00
BIGSUB    5        0 33.0.65675E+02   310.046     9.442  2266.462   180.036   256.467     9.858   117.823     0.000   118.946    10.079     0.054     0.007     0.000     0.027     2.776     0.631     0.002     0.000 .00000E+00 0.000E+00 0.000E+00 0.000E+00 0.000E+00 0.000E+00
BIGSUB    6        0 33.0.16063E+03   309.994     9.443  2265.116   199.409   263.236    33.988    75.220     0.509    78.374     6.058     0.061     0.008     0.000     0.023     2.335     0.952     0.002     0.000 .00000E+00 0.000E+00 0.000E+00 0.000E+00 0.000E+00 0.000E+00
BIGSUB    7        0 33.0.36382E+01   310.046     9.442  2268.799   199.564   261.963    42.644    68.286     0.000    71.063     2.891     0.037     0.004     0.000     0.028     1.714     0.652     0.002     0.000 .00000E+00 0.000E+00 0.000E+00 0.000E+00 0.000E+00 0.000E+00
BIGSUB    8        0 33.0.83411E+02   310.046     9.439  2218.936   180.623   261.726    10.023   117.212     0.000   118.197     8.821     0.053     0.006     0.000     0.028     2.708     0.485     0.002     0.000 .00000E+00 0.000E+00 0.000E+00 0.000E+00 0.000E+00 0.000E+00
BIGSUB    9        0 33.0.13927E+01   310.046     9.442  2269.189   197.166   260.734    38.225    73.271     0.645    77.271     1.869     0.032     0.004     0.000     0.036     1.077     1.450     0.002     0.000 .00000E+00 0.000E+00 0.000E+00 0.000E+00 0.000E+00 0.000E+00
BIGSUB   10        0 33.0.81416E+02   309.220     9.440  2210.985   174.485   256.658     1.770   129.997     0.000   131.077    15.719     0.062     0.008     0.000     0.023     3.247     0.992     0.004     0.000 .00000E+00 0.000E+00 0.000E+00 0.000E+00 0.000E+00 0.000E+00
BIGSUB   11        0 33.0.12618E+03   309.277     9.442  2261.312   201.965   260.429    44.378    58.370     1.376    66.532     5.122     0.077     0.010     0.000     0.019     2.312     4.576     0.007     0.000 .00000E+00 0.000E+00 0.000E+00 0.000E+00 0.000E+00 0.000E+00
BIGSUB   12        0 33.0.10306E+03   310.046     9.442  2267.703   188.035   251.647    20.494    97.902     1.458   102.626     9.806     0.076     0.010     0.000     0.022     3.012     2.245     0.007     0.000 .00000E+00 0.000E+00 0.000E+00 0.000E+00 0.000E+00 0.000E+00
BIGSUB   13        0 33.0.10485E+02   310.046     9.441  2271.542   206.715   251.690    53.939    40.402     5.519    54.818     5.116     0.129     0.017     0.000     0.014     2.331     6.209     0.009     0.000 .00000E+00 0.000E+00 0.000E+00 0.000E+00 0.000E+00 0.000E+00
BIGSUB   14        0 33.0.63210E+02   308.398     9.442  2257.000   200.245   255.811    41.464    53.244     1.790    69.823     8.668     0.112     0.014     0.000     0.015     2.788    12.723     0.016     0.000 .00000E+00 0.000E+00 0.000E+00 0.000E+00 0.000E+00 0.000E+00
BIGSUB   15        0 33.0.25762E+01   310.046     9.440  2276.695   198.624   250.041    29.939    31.914     1.587    79.903    13.953     0.205     0.026     0.000     0.008     3.166    44.911     0.047     0.000 .00000E+00 0.000E+00 0.000E+00 0.000E+00 0.000E+00 0.000E+00
BIGSUB   16        0 33.0.18897E+03   309.571     9.440  2213.160   178.170   265.264     1.812   126.706     0.000   127.492    13.510     0.061     0.007     0.000     0.024     3.234     0.696     0.003     0.000 .00000E+00 0.000E+00 0.000E+00 0.000E+00 0.000E+00 0.000E+00
BIGSUB   17        0 33.0.86112E+02   310.046     9.452  2138.514   200.872   261.145    45.913    56.269     2.758    67.916     5.084     0.073     0.009     0.000     0.020     2.253     6.600     0.008     0.000 .00000E+00 0.000E+00 0.000E+00 0.000E+00 0.000E+00 0.000E+00
BIGSUB   18        0 33.0.12506E+03   309.925     9.456  2027.995   172.397   245.242     5.178   130.810     0.000   131.864     6.598     0.056     0.007     0.000     0.037     2.915     0.796     0.004     0.000 .00000E+00 0.000E+00 0.000E+00 0.000E+00 0.000E+00 0.000E+00
BIGSUB   19        0 33.0.68335E+02   310.046     9.452  2137.704   186.938   256.408    23.361    96.625     2.649   102.208     6.685     0.065     0.008     0.000     0.027     2.590     1.769     0.005     0.000 .00000E+00 0.000E+00 0.000E+00 0.000E+00 0.000E+00 0.000E+00
BIGSUB   20        0 33.0.11691E+03   310.046     9.456  2030.093   173.905   258.132     3.350   130.540     0.000   131.338     7.857     0.056     0.007     0.000     0.033     2.925     0.630     0.003     0.000 .00000E+00 0.000E+00 0.000E+00 0.000E+00 0.000E+00 0.000E+00
BIGSUB   21        0 33.0.99067E+02   328.357    12.232  2158.001   171.840   261.266     3.173   150.059     0.000   150.588     8.283     0.059     0.007     0.000     0.034     3.050     0.371     0.002     0.000 .00000E+00 0.000E+00 0.000E+00 0.000E+00 0.000E+00 0.000E+00
BIGSUB   22        0 33.0.15130E+01   321.793    12.205  2209.178   166.980   237.244     2.994   127.926     0.000   151.903    43.688     0.070     0.009     0.000     0.021     3.799    23.828     0.069     0.000 .00000E+00 0.000E+00 0.000E+00 0.000E+00 0.000E+00 0.000E+00
BIGSUB   23        0 33.0.28187E+03   309.409     9.452  2203.950   192.217   246.536    31.728    55.407     1.481    86.618    21.042     0.131     0.016     0.000     0.012     3.267    28.149     0.031     0.000 .00000E+00 0.000E+00 0.000E+00 0.000E+00 0.000E+00 0.000E+00
BIGSUB   24        0 33.0.68344E+01   328.357    12.221  2173.720   186.387   230.168    15.592    38.480     3.098   124.980    24.453     0.139     0.023     0.000     0.005     2.427    82.624     0.122     0.000 .00000E+00 0.000E+00 0.000E+00 0.000E+00 0.000E+00 0.000E+00
BIGSUB   25        0 33.0.15704E+03   327.812    12.213  2238.492   181.559   229.584    12.513    68.628     1.292   131.904    48.893     0.095     0.015     0.000     0.008     2.824    61.359     0.108     0.000 .00000E+00 0.000E+00 0.000E+00 0.000E+00 0.000E+00 0.000E+00
BIGSUB   26        0 33.0.16121E+02   328.357    12.231  2159.743   182.022   235.467    27.289    71.136     4.688   122.439    32.764     0.094     0.013     0.000     0.013     3.129    45.252     0.069     0.000 .00000E+00 0.000E+00 0.000E+00 0.000E+00 0.000E+00 0.000E+00
BIGSUB   27        0 33.0.74006E+02   328.357    12.226  2166.766   179.784   242.355    17.058    96.510     2.504   131.627    40.857     0.094     0.014     0.000     0.013     3.500    31.762     0.054     0.000 .00000E+00 0.000E+00 0.000E+00 0.000E+00 0.000E+00 0.000E+00
BIGSUB   28        0 33.0.85599E+02   328.357    12.231  2159.454   171.515   248.602     5.158   142.353     0.000   149.250    24.001     0.070     0.009     0.000     0.020     3.672     6.639     0.016     0.000 .00000E+00 0.000E+00 0.000E+00 0.000E+00 0.000E+00 0.000E+00
BIGSUB   29        0 33.0.11585E+03   328.249    12.254  2048.061   172.200   248.717    10.562   142.321     0.176   144.718    12.493     0.064     0.008     0.000     0.031     3.272     1.694     0.007     0.000 .00000E+00 0.000E+00 0.000E+00 0.000E+00 0.000E+00 0.000E+00
BIGSUB   30        0 33.0.38028E+02   328.357    12.253  2050.290   171.056   240.858    15.617   139.539     0.444   141.593     9.813     0.060     0.007     0.000     0.031     2.933     0.829     0.002     0.000 .00000E+00 0.000E+00 0.000E+00 0.000E+00 0.000E+00 0.000E+00
BIGSUB   31        0 33.0.16373E+03   328.357    12.231  2159.265   170.301   245.624     7.117   138.929     0.000   148.695    28.157     0.073     0.009     0.000     0.020     3.710     9.411     0.020     0.000 .00000E+00 0.000E+00 0.000E+00 0.000E+00 0.000E+00 0.000E+00
BIGSUB   32        0 33.0.11085E+03   327.948    12.227  2215.840   190.665   240.571    66.389    58.736    21.721    96.150     4.585     0.054     0.008     0.000     0.019     2.024    12.377     0.021     0.001 .00000E+00 0.000E+00 0.000E+00 0.000E+00 0.000E+00 0.000E+00
BIGSUB   33        0 33.0.76515E+02   328.357    12.253  2050.039   174.936   240.098    20.627   129.638     0.541   133.473    13.199     0.062     0.008     0.000     0.028     3.107     2.264     0.007     0.000 .00000E+00 0.000E+00 0.000E+00 0.000E+00 0.000E+00 0.000E+00
BIGSUB   34        0 33.0.69117E+02   327.966    12.255  2045.954   171.618   249.143     5.428   148.340     0.000   149.742    12.366     0.065     0.008     0.000     0.031     3.402     1.131     0.006     0.000 .00000E+00 0.000E+00 0.000E+00 0.000E+00 0.000E+00 0.000E+00
BIGSUB   35        0 33.0.13201E+03   328.357    12.231  2159.529   179.147   236.770    19.768    93.959     2.684   130.249    46.599     0.097     0.014     0.000     0.014     3.516    32.620     0.050     0.000 .00000E+00 0.000E+00 0.000E+00 0.000E+00 0.000E+00 0.000E+00
BIGSUB   36        0 33.0.16060E+03   328.357    12.254  2049.543   169.577   247.191     5.106   151.187     0.000   152.115    10.554     0.062     0.008     0.000     0.034     3.169     0.673     0.003     0.000 .00000E+00 0.000E+00 0.000E+00 0.000E+00 0.000E+00 0.000E+00
BIGSUB   37        0 33.0.15721E+03   328.357    12.233  2157.190   174.637   250.960    11.566   135.498     0.002   140.772    17.430     0.066     0.008     0.000     0.025     3.342     4.694     0.013     0.000 .00000E+00 0.000E+00 0.000E+00 0.000E+00 0.000E+00 0.000E+00
BIGSUB   38        0 33.0.12493E+00   328.357    12.232  2158.849   177.848   247.632    22.385   126.771     0.028   128.514     2.895     0.030     0.004     0.000     0.053     1.467     0.597     0.002     0.000 .00000E+00 0.000E+00 0.000E+00 0.000E+00 0.000E+00 0.000E+00
BIGSUB   39        0 33.0.73199E+02   328.357    12.275  2004.879   166.429   245.405    10.135   147.417     0.256   150.809    18.719     0.069     0.008     0.000     0.025     3.450     2.629     0.009     0.000 .00000E+00 0.000E+00 0.000E+00 0.000E+00 0.000E+00 0.000E+00
BIGSUB   40        0 33.0.11658E+03   328.099    12.232  2156.116   180.568   252.547    28.195   111.487     3.776   123.653    21.840     0.065     0.008     0.000     0.020     3.253     6.983     0.016     0.000 .00000E+00 0.000E+00 0.000E+00 0.000E+00 0.000E+00 0.000E+00
BIGSUB   41        0 33.0.17248E+02   328.357    12.273  2007.484   171.546   252.954    14.254   139.298     2.306   143.984    15.883     0.065     0.008     0.000     0.025     3.308     1.668     0.007     0.000 .00000E+00 0.000E+00 0.000E+00 0.000E+00 0.000E+00 0.000E+00
BIGSUB   42        0 33.0.94303E+02   328.357    12.275  2004.878   168.339   248.013     7.485   148.229     0.092   151.104    23.213     0.075     0.009     0.000     0.018     3.829     2.409     0.010     0.000 .00000E+00 0.000E+00 0.000E+00 0.000E+00 0.000E+00 0.000E+00
BIGSUB   43        0 33.0.14154E+03   328.357    12.295  1897.174   162.827   245.060     4.915   156.145     0.000   158.800    16.371     0.065     0.008     0.000     0.031     3.257     2.409     0.008     0.000 .00000E+00 0.000E+00 0.000E+00 0.000E+00 0.000E+00 0.000E+00
BIGSUB   44        0 33.0.20450E+03   327.846    12.276  2000.431   189.213   253.011    32.748    96.151     5.031   110.524    13.613     0.175     0.036     0.002     0.020     2.997     7.708     0.018     0.000 .00000E+00 0.000E+00 0.000E+00 0.000E+00 0.000E+00 0.000E+00
BIGSUB   45        0 33.0.73063E+02   328.357    12.294  1898.391   162.898   244.491     5.222   156.974     0.000   158.543    13.298     0.063     0.008     0.000     0.033     3.140     1.308     0.005     0.000 .00000E+00 0.000E+00 0.000E+00 0.000E+00 0.000E+00 0.000E+00
BIGSUB   46        0 33.0.12644E+01   328.357    12.293  1899.101   165.687   244.557    11.933   148.774     1.752   151.541     4.221     0.037     0.005     0.000     0.055     1.852     0.418     0.002     0.000 .00000E+00 0.000E+00 0.000E+00 0.000E+00 0.000E+00 0.000E+00
BIGSUB   47        0 33.0.87448E+02   328.357    12.293  1898.768   167.769   251.196     6.433   152.356     0.000   152.993     6.289     0.049     0.006     0.000     0.045     2.576     0.315     0.002     0.000 .00000E+00 0.000E+00 0.000E+00 0.000E+00 0.000E+00 0.000E+00
BIGSUB   48        0 33.0.12017E+03   327.724    12.293  1894.656   167.956   251.352     6.762   151.610     0.000   152.310     6.285     0.052     0.006     0.000     0.044     2.685     0.362     0.002     0.000 .00000E+00 0.000E+00 0.000E+00 0.000E+00 0.000E+00 0.000E+00
BIGSUB   49        0 33.0.15298E+03   328.357    12.274  2005.891   170.828   247.411    16.738   132.917     0.575   140.966    18.892     0.069     0.008     0.000     0.024     3.415     6.638     0.019     0.000 .00000E+00 0.000E+00 0.000E+00 0.000E+00 0.000E+00 0.000E+00
BIGSUB   50        0 33.0.76393E+02   327.568    12.288  1892.070   173.843   251.288    28.261   124.003     2.161   129.183     9.478     0.057     0.007     0.000     0.030     2.819     1.608     0.004     0.000 .00000E+00 0.000E+00 0.000E+00 0.000E+00 0.000E+00 0.000E+00
BIGSUB   51        0 33.0.90351E+02   328.357    12.293  1899.121   165.668   248.670     5.590   154.880     0.000   155.571     7.063     0.051     0.006     0.000     0.044     2.577     0.411     0.002     0.000 .00000E+00 0.000E+00 0.000E+00 0.000E+00 0.000E+00 0.000E+00
BIGSUB   52        0 33.0.35425E+02   328.357    12.287  1897.147   165.056   246.155     5.840   155.338     0.000   156.030     5.960     0.049     0.006     0.000     0.048     2.508     0.400     0.002     0.000 .00000E+00 0.000E+00 0.000E+00 0.000E+00 0.000E+00 0.000E+00
BIGSUB   53        0 33.0.68855E+02   328.357    12.293  1898.847   163.796   244.303     5.071   156.917     0.000   157.745     8.562     0.060     0.007     0.000     0.035     2.959     0.575     0.002     0.000 .00000E+00 0.000E+00 0.000E+00 0.000E+00 0.000E+00 0.000E+00
BIGSUB   54        0 33.0.80750E+02   327.474    12.278  1996.284   178.822   250.703    40.414   106.719     7.313   117.889     9.446     0.058     0.007     0.000     0.025     2.827     1.839     0.004     0.000 .00000E+00 0.000E+00 0.000E+00 0.000E+00 0.000E+00 0.000E+00
BIGSUB   55        0 33.0.19802E+03   328.357    12.293  1898.754   164.323   248.164     5.218   156.359     0.000   157.104     8.337     0.056     0.007     0.000     0.039     2.804     0.484     0.002     0.000 .00000E+00 0.000E+00 0.000E+00 0.000E+00 0.000E+00 0.000E+00
BIGSUB   56        0 33.0.80623E+02   328.135    12.287  1895.686   167.242   246.955    12.609   145.930     0.666   148.252     9.104     0.057     0.007     0.000     0.036     2.833     1.026     0.003     0.000 .00000E+00 0.000E+00 0.000E+00 0.000E+00 0.000E+00 0.000E+00
BIGSUB   57        0 33.0.12089E+03   328.357    12.274  2006.388   168.820   246.656    14.361   143.132     0.618   145.180     9.388     0.058     0.007     0.000     0.033     2.875     0.713     0.002     0.000 .00000E+00 0.000E+00 0.000E+00 0.000E+00 0.000E+00 0.000E+00
BIGSUB   58        0 33.0.41754E+01   328.357    12.274  2006.348   175.622   247.072    22.304   127.555     2.752   132.705     6.147     0.050     0.007     0.001     0.041     2.054     1.284     0.004     0.000 .00000E+00 0.000E+00 0.000E+00 0.000E+00 0.000E+00 0.000E+00
BIGSUB   59        0 33.0.87078E+02   328.320    12.289  1895.771   168.965   247.280    15.929   141.047     0.949   144.069     9.772     0.058     0.007     0.000     0.033     2.891     1.277     0.004     0.000 .00000E+00 0.000E+00 0.000E+00 0.000E+00 0.000E+00 0.000E+00
BIGSUB   60        0 33.0.74524E+02   328.357    12.275  2004.753   166.418   245.199     4.727   154.313     0.000   155.410    10.890     0.059     0.007     0.000     0.037     2.962     0.861     0.004     0.000 .00000E+00 0.000E+00 0.000E+00 0.000E+00 0.000E+00 0.000E+00
BIGSUB   61        0 33.0.54974E+02   328.157    12.274  2005.294   167.502   244.312     7.774   150.783     0.091   151.749     6.972     0.049     0.006     0.000     0.046     2.451     0.486     0.002     0.000 .00000E+00 0.000E+00 0.000E+00 0.000E+00 0.000E+00 0.000E+00
BIGSUB   62        0 33.0.30078E+02   328.156    12.275  2004.051   165.859   241.239     5.013   154.640     0.000   155.729     8.014     0.057     0.007     0.000     0.040     2.857     0.838     0.004     0.000 .00000E+00 0.000E+00 0.000E+00 0.000E+00 0.000E+00 0.000E+00
BIGSUB   63        0 33.0.71547E+02   327.406    12.275  1998.669   167.046   243.090     7.999   149.892     0.078   151.587    10.167     0.061     0.008     0.000     0.035     3.074     1.217     0.005     0.000 .00000E+00 0.000E+00 0.000E+00 0.000E+00 0.000E+00 0.000E+00
BIGSUB   64        0 33.0.92785E+02   328.203    12.274  2005.581   166.750   244.649     4.997   154.033     0.000   154.842     8.005     0.049     0.006     0.000     0.047     2.463     0.559     0.003     0.000 .00000E+00 0.000E+00 0.000E+00 0.000E+00 0.000E+00 0.000E+00
BIGSUB   65        0 33.0.97995E+02   328.357    12.287  1897.359   170.877   241.210    21.834   133.695     1.383   137.338     8.549     0.055     0.007     0.000     0.034     2.701     1.169     0.003     0.000 .00000E+00 0.000E+00 0.000E+00 0.000E+00 0.000E+00 0.000E+00
BIGSUB   66        0 33.0.59743E+02   328.357    12.293  1899.002   164.706   242.462     8.740   152.581     0.311   153.959     6.970     0.046     0.006     0.000     0.048     2.269     0.630     0.002     0.000 .00000E+00 0.000E+00 0.000E+00 0.000E+00 0.000E+00 0.000E+00
BIGSUB   67        0 33.0.70663E+02   328.357    12.293  1899.032   165.677   245.093     8.362   151.985     0.277   153.262     6.927     0.054     0.007     0.000     0.040     2.670     0.582     0.002     0.000 .00000E+00 0.000E+00 0.000E+00 0.000E+00 0.000E+00 0.000E+00
BIGSUB   68        0 33.0.66453E+02   328.357    12.276  1979.894   169.683   246.578    16.680   139.192     0.731   142.367    10.878     0.059     0.007     0.000     0.032     2.926     1.610     0.005     0.000 .00000E+00 0.000E+00 0.000E+00 0.000E+00 0.000E+00 0.000E+00
BIGSUB   69        0 33.0.11060E+03   328.357    12.281  1999.049   169.902   249.645    12.685   143.659     0.344   145.283     8.341     0.055     0.007     0.000     0.037     2.713     0.646     0.002     0.000 .00000E+00 0.000E+00 0.000E+00 0.000E+00 0.000E+00 0.000E+00
BIGSUB   70        0 33.0.13450E+03   328.336    12.281  1999.413   176.583   248.688    24.401   126.065     0.850   128.964     5.325     0.049     0.006     0.000     0.038     2.422     0.830     0.003     0.000 .00000E+00 0.000E+00 0.000E+00 0.000E+00 0.000E+00 0.000E+00
BIGSUB   71        0 33.0.24406E+03   327.803    12.276  1976.879   173.119   245.893    23.095   130.270     1.165   133.587     8.630     0.056     0.007     0.000     0.032     2.796     0.999     0.003     0.000 .00000E+00 0.000E+00 0.000E+00 0.000E+00 0.000E+00 0.000E+00
